<?xml version="1.0" encoding="UTF-8"?>

<!-- generated on 2024-11-08 12:56:57 by Eclipse SUMO netedit Version 1.20.0
<configuration xmlns:xsi="http://www.w3.org/2001/XMLSchema-instance" xsi:noNamespaceSchemaLocation="http://sumo.dlr.de/xsd/neteditConfiguration.xsd">

    <input>
        <sumo-net-file value="C:\Users\ASUS\Desktop\MBZUAI\AI701\Models\sumo-rl\sumo_rl\nets\abudhabi-intersection\osm.net.xml"/>
    </input>

    <output>
        <output-file value="C:\Users\ASUS\Desktop\MBZUAI\AI701\Models\sumo-rl\sumo_rl\nets\abudhabi-intersection\osm.net.xml"/>
        <output.street-names value="true"/>
    </output>

    <processing>
        <geometry.min-radius.fix.railways value="false"/>
        <geometry.max-grade.fix value="false"/>
        <offset.disable-normalization value="true"/>
        <lefthand value="0"/>
    </processing>

    <junctions>
        <no-internal-links value="false"/>
        <no-turnarounds value="true"/>
        <junctions.corner-detail value="5"/>
        <junctions.limit-turn-speed value="5.50"/>
        <rectangular-lane-cut value="0"/>
    </junctions>

    <pedestrian>
        <walkingareas value="1"/>
    </pedestrian>

</configuration>
-->

<net version="1.20" junctionCornerDetail="5" walkingareas="true" limitTurnSpeed="5.50" xmlns:xsi="http://www.w3.org/2001/XMLSchema-instance" xsi:noNamespaceSchemaLocation="http://sumo.dlr.de/xsd/net_file.xsd">

    <location netOffset="-236867.04,-2711183.16" convBoundary="-25.21,-50.77,247.99,185.81" origBoundary="54.403534,24.492120,54.405761,24.493807" projParameter="+proj=utm +zone=40 +ellps=WGS84 +datum=WGS84 +units=m +no_defs"/>

    <type id="highway.footway" priority="1" numLanes="1" speed="2.78" allow="pedestrian" oneway="1" width="2.00"/>
    <type id="highway.path" priority="1" numLanes="1" speed="5.56" allow="pedestrian bicycle" oneway="0" width="2.00"/>
    <type id="highway.residential" priority="3" numLanes="1" speed="13.89" disallow="pedestrian tram rail_urban rail rail_electric rail_fast ship container cable_car subway aircraft wheelchair scooter drone" oneway="0" sidewalkWidth="2.00"/>
    <type id="highway.secondary" priority="11" numLanes="1" speed="13.89" disallow="pedestrian tram rail_urban rail rail_electric rail_fast ship container cable_car subway aircraft wheelchair scooter drone" oneway="0" sidewalkWidth="3.00"/>
    <type id="highway.secondary_link" priority="6" numLanes="1" speed="13.89" disallow="pedestrian tram rail_urban rail rail_electric rail_fast ship container cable_car subway aircraft wheelchair scooter drone" oneway="0" sidewalkWidth="3.00"/>
    <type id="highway.service" priority="1" numLanes="1" speed="5.56" allow="pedestrian delivery bicycle" oneway="0"/>
    <type id="highway.tertiary" priority="10" numLanes="1" speed="13.89" disallow="pedestrian tram rail_urban rail rail_electric rail_fast ship container cable_car subway aircraft wheelchair scooter drone" oneway="0" sidewalkWidth="3.00"/>
    <type id="highway.unclassified" priority="4" numLanes="1" speed="13.89" disallow="pedestrian tram rail_urban rail rail_electric rail_fast ship container cable_car subway aircraft wheelchair scooter drone" oneway="0" sidewalkWidth="2.00"/>

    <edge id=":10918168452_0" function="internal">
        <lane id=":10918168452_0_0" index="0" disallow="pedestrian tram rail_urban rail rail_electric rail_fast ship container cable_car subway aircraft wheelchair scooter drone" speed="13.89" length="5.01" shape="55.48,117.13 50.54,117.98"/>
    </edge>
    <edge id=":1791225054_0" function="internal">
        <lane id=":1791225054_0_0" index="0" disallow="pedestrian tram rail_urban rail rail_electric rail_fast ship container cable_car subway aircraft wheelchair scooter drone" speed="16.67" length="8.63" shape="192.05,144.30 193.66,146.11 194.78,147.33 195.97,148.49 197.73,150.14"/>
        <lane id=":1791225054_0_1" index="1" disallow="pedestrian tram rail_urban rail rail_electric rail_fast ship container cable_car subway aircraft wheelchair scooter drone" speed="16.67" length="8.63" shape="189.65,146.41 191.32,148.29 192.49,149.56 193.71,150.76 195.55,152.48"/>
        <lane id=":1791225054_0_2" index="2" disallow="pedestrian tram rail_urban rail rail_electric rail_fast ship container cable_car subway aircraft wheelchair scooter drone" speed="16.67" length="8.63" shape="187.25,148.52 188.98,150.48 190.19,151.79 191.46,153.04 193.37,154.83"/>
        <lane id=":1791225054_0_3" index="3" disallow="pedestrian tram rail_urban rail rail_electric rail_fast ship container cable_car subway aircraft wheelchair scooter drone" speed="16.67" length="8.63" shape="184.84,150.63 186.63,152.66 187.89,154.02 189.21,155.32 191.19,157.17"/>
    </edge>
    <edge id=":1791225054_4" function="internal">
        <lane id=":1791225054_4_0" index="0" disallow="pedestrian tram rail_urban rail rail_electric rail_fast ship container cable_car subway aircraft wheelchair scooter drone" speed="15.28" length="9.41" shape="184.84,150.63 187.10,152.06 189.32,152.22 191.34,152.51 193.02,154.32"/>
    </edge>
    <edge id=":1925359950_0" function="internal">
        <lane id=":1925359950_0_0" index="0" disallow="pedestrian tram rail_urban rail rail_electric rail_fast ship container cable_car subway aircraft wheelchair scooter drone" speed="22.22" length="3.37" shape="164.63,20.17 167.54,18.54"/>
        <lane id=":1925359950_0_1" index="1" disallow="pedestrian tram rail_urban rail rail_electric rail_fast ship container cable_car subway aircraft wheelchair scooter drone" speed="22.22" length="3.37" shape="166.18,22.97 169.12,21.33"/>
        <lane id=":1925359950_0_2" index="2" disallow="pedestrian tram rail_urban rail rail_electric rail_fast ship container cable_car subway aircraft wheelchair scooter drone" speed="22.22" length="3.37" shape="167.73,25.77 170.69,24.11"/>
    </edge>
    <edge id=":1925359950_3" function="internal">
        <lane id=":1925359950_3_0" index="0" disallow="pedestrian tram rail_urban rail rail_electric rail_fast ship container cable_car subway aircraft wheelchair scooter drone" speed="18.05" length="3.32" shape="163.14,17.50 165.96,15.76"/>
    </edge>
    <edge id=":4589147735_0" function="internal">
        <lane id=":4589147735_0_0" index="0" disallow="pedestrian tram rail_urban rail rail_electric rail_fast ship container cable_car subway aircraft wheelchair scooter drone" speed="18.05" length="2.95" shape="178.78,39.06 176.22,40.54"/>
    </edge>
    <edge id=":4589147735_1" function="internal">
        <lane id=":4589147735_1_0" index="0" disallow="pedestrian tram rail_urban rail rail_electric rail_fast ship container cable_car subway aircraft wheelchair scooter drone" speed="22.22" length="3.04" shape="177.19,36.28 174.60,37.79"/>
        <lane id=":4589147735_1_1" index="1" disallow="pedestrian tram rail_urban rail rail_electric rail_fast ship container cable_car subway aircraft wheelchair scooter drone" speed="22.22" length="3.04" shape="175.61,33.50 172.98,35.03"/>
        <lane id=":4589147735_1_2" index="2" disallow="pedestrian tram rail_urban rail rail_electric rail_fast ship container cable_car subway aircraft wheelchair scooter drone" speed="22.22" length="3.04" shape="174.03,30.72 171.36,32.27"/>
    </edge>
    <edge id=":4589147738_0" function="internal">
        <lane id=":4589147738_0_0" index="0" disallow="pedestrian tram rail_urban rail rail_electric rail_fast ship container cable_car subway aircraft wheelchair scooter drone" speed="15.28" length="29.07" shape="143.68,78.87 144.47,83.48 146.28,89.55 149.74,96.61 155.51,104.19"/>
        <lane id=":4589147738_0_1" index="1" disallow="pedestrian tram rail_urban rail rail_electric rail_fast ship container cable_car subway aircraft wheelchair scooter drone" speed="15.28" length="29.07" shape="143.68,78.87 144.05,83.76 144.96,90.48 147.60,98.27 153.16,106.37"/>
    </edge>
    <edge id=":4589147738_2" function="internal">
        <lane id=":4589147738_2_0" index="0" disallow="pedestrian tram rail_urban rail rail_electric rail_fast ship container cable_car subway aircraft wheelchair scooter drone" speed="16.67" length="28.66" shape="138.99,81.34 143.87,88.16 146.89,93.07 150.10,97.83 155.51,104.19"/>
        <lane id=":4589147738_2_1" index="1" disallow="pedestrian tram rail_urban rail rail_electric rail_fast ship container cable_car subway aircraft wheelchair scooter drone" speed="16.67" length="28.66" shape="136.46,83.30 141.39,90.19 144.45,95.14 147.69,99.94 153.16,106.37"/>
        <lane id=":4589147738_2_2" index="2" disallow="pedestrian tram rail_urban rail rail_electric rail_fast ship container cable_car subway aircraft wheelchair scooter drone" speed="16.67" length="28.66" shape="133.94,85.27 138.92,92.21 142.01,97.21 145.29,102.06 150.82,108.54"/>
        <lane id=":4589147738_2_3" index="3" disallow="pedestrian tram rail_urban rail rail_electric rail_fast ship container cable_car subway aircraft wheelchair scooter drone" speed="16.67" length="28.66" shape="131.41,87.23 136.44,94.24 139.57,99.29 142.89,104.18 148.48,110.72"/>
    </edge>
    <edge id=":4589147749_0" function="internal">
        <lane id=":4589147749_0_0" index="0" allow="pedestrian bicycle" speed="2.89" length="2.92" width="2.00" shape="127.42,27.47 128.02,28.15 128.12,28.69 127.75,29.11 126.90,29.39"/>
    </edge>
    <edge id=":4589147750_0" function="internal">
        <lane id=":4589147750_0_0" index="0" allow="pedestrian bicycle" speed="2.89" length="2.92" width="2.00" shape="117.29,26.25 116.75,25.52 116.69,24.97 117.10,24.58 117.97,24.37"/>
    </edge>
    <edge id=":4589147915_w0" function="walkingarea">
        <lane id=":4589147915_w0_0" index="0" allow="pedestrian" speed="2.78" length="3.63" width="2.00" shape="147.50,72.63 149.49,72.42 149.38,71.00 149.43,70.50 149.56,70.01 149.79,69.44 150.14,68.71 148.35,67.83 147.81,68.54 147.48,68.77 147.09,68.91 146.67,68.96 146.19,68.92 145.86,70.89 146.70,71.19 147.01,71.45 147.24,71.77 147.41,72.17"/>
    </edge>
    <edge id=":4589147961_0" function="internal">
        <lane id=":4589147961_0_0" index="0" allow="pedestrian bicycle" speed="5.56" length="5.27" width="2.00" shape="125.53,29.02 120.51,27.43"/>
    </edge>
    <edge id=":4589147961_1" function="internal">
        <lane id=":4589147961_1_0" index="0" allow="pedestrian bicycle" speed="2.89" length="2.48" width="2.00" shape="125.53,29.02 124.94,28.34 124.83,27.79 125.21,27.38 125.64,27.23"/>
    </edge>
    <edge id=":4589147961_4" function="internal">
        <lane id=":4589147961_4_0" index="0" allow="pedestrian bicycle" speed="2.89" length="0.45" width="2.00" shape="125.64,27.23 126.06,27.09"/>
    </edge>
    <edge id=":4589147961_2" function="internal">
        <lane id=":4589147961_2_0" index="0" allow="pedestrian bicycle" speed="5.56" length="5.10" width="2.00" shape="121.20,25.56 126.06,27.09"/>
    </edge>
    <edge id=":4589147961_3" function="internal">
        <lane id=":4589147961_3_0" index="0" allow="pedestrian bicycle" speed="2.89" length="0.79" width="2.00" shape="121.20,25.56 121.67,26.20"/>
    </edge>
    <edge id=":4589147961_5" function="internal">
        <lane id=":4589147961_5_0" index="0" allow="pedestrian bicycle" speed="2.89" length="2.13" width="2.00" shape="121.67,26.20 121.73,26.28 121.79,26.84 121.39,27.22 120.51,27.43"/>
    </edge>
    <edge id=":4589147961_w0" function="walkingarea">
        <lane id=":4589147961_w0_0" index="0" allow="pedestrian" speed="2.78" length="4.48" width="4.00" shape="125.27,29.99 126.32,26.13 125.58,25.76 125.38,25.49 125.29,25.16 125.32,24.78 125.45,24.35 123.61,23.58 123.09,24.39 122.77,24.62 122.40,24.73 121.99,24.73 121.54,24.62 120.17,28.37 120.90,28.82 121.11,29.12 121.21,29.47 121.21,29.87 121.11,30.32 123.01,30.93 123.47,30.19 123.81,29.98 124.22,29.88 124.71,29.88"/>
    </edge>
    <edge id=":4589147962_w0" function="walkingarea">
        <lane id=":4589147962_w0_0" index="0" allow="pedestrian" speed="2.78" length="1.70" width="2.00" shape="119.54,39.40 121.31,38.46 120.87,37.33 120.80,36.81 120.82,36.32 120.94,35.86 121.16,35.42 119.48,34.34 118.59,35.62 118.21,36.02 117.78,36.37 117.23,36.75 116.48,37.24 117.59,38.91 118.36,38.60 118.70,38.62 119.01,38.76 119.29,39.02"/>
    </edge>
    <edge id=":4589147964_w0" function="walkingarea">
        <lane id=":4589147964_w0_0" index="0" allow="pedestrian" speed="2.78" length="2.17" width="2.00" shape="79.33,64.02 81.05,63.00 80.77,62.20 80.79,61.83 80.93,61.50 81.19,61.19 81.55,60.91 80.48,59.22 79.37,59.77 78.84,59.92 78.33,59.99 77.83,59.98 77.34,59.88 76.77,61.79 77.97,62.26 78.34,62.54 78.65,62.90 78.96,63.39"/>
    </edge>
    <edge id=":4589147966_w0" function="walkingarea">
        <lane id=":4589147966_w0_0" index="0" allow="pedestrian" speed="2.78" length="2.18" width="4.00" shape="139.14,69.52 139.58,67.57 138.38,67.18 138.00,66.92 137.69,66.57 137.37,66.10 136.98,65.48 135.29,66.56 135.60,67.35 135.58,67.71 135.45,68.04 135.20,68.34 134.84,68.62 135.90,70.31 137.01,69.63 137.44,69.45 137.89,69.37 138.43,69.39"/>
    </edge>
    <edge id=":4589147968_w0" function="walkingarea">
        <lane id=":4589147968_w0_0" index="0" allow="pedestrian" speed="2.78" length="1.67" width="4.00" shape="100.85,89.75 99.93,87.97 99.07,88.24 98.67,88.22 98.28,88.11 97.91,87.90 97.55,87.59 96.12,88.98 96.81,89.88 97.04,90.36 97.20,90.86 97.28,91.37 97.29,91.90 99.29,92.01 99.50,91.10 99.72,90.70 100.02,90.34 100.39,90.02"/>
    </edge>
    <edge id=":4599465039_0" function="internal">
        <lane id=":4599465039_0_0" index="0" disallow="pedestrian tram rail_urban rail rail_electric rail_fast ship container cable_car subway aircraft wheelchair scooter drone" speed="13.89" length="5.40" shape="144.26,66.87 143.80,68.41 143.55,69.48 143.42,70.57 143.33,72.16"/>
    </edge>
    <edge id=":4599465039_c0" function="crossing" crossingEdges="463663569#0">
        <lane id=":4599465039_c0_0" index="0" allow="pedestrian" speed="2.78" length="3.20" width="4.00" shape="142.14,68.32 145.20,69.25" outlineShape="142.73,66.40 145.79,67.34 146.08,70.93 146.41,68.95 145.79,67.34 144.61,71.17 141.55,70.23 142.68,66.44 140.72,67.83 140.29,69.78"/>
    </edge>
    <edge id=":4599465039_w0" function="walkingarea">
        <lane id=":4599465039_w0_0" index="0" allow="pedestrian" speed="2.78" length="1.25" width="4.00" shape="146.08,70.93 146.41,68.95 145.79,67.34 145.48,68.36 145.27,69.12 145.13,69.75 145.04,70.40 144.98,71.18"/>
    </edge>
    <edge id=":4599465039_w1" function="walkingarea">
        <lane id=":4599465039_w1_0" index="0" allow="pedestrian" speed="2.78" length="1.71" width="4.00" shape="141.55,70.23 142.73,66.40 140.72,67.83 140.29,69.78"/>
    </edge>
    <edge id=":4599465043_0" function="internal">
        <lane id=":4599465043_0_0" index="0" disallow="pedestrian tram rail_urban rail rail_electric rail_fast ship container cable_car subway aircraft wheelchair scooter drone" speed="13.89" length="5.60" shape="100.61,94.89 99.02,94.42 97.90,94.21 96.76,94.19 95.10,94.26"/>
    </edge>
    <edge id=":4599465043_c0" function="crossing" crossingEdges="464896839#1">
        <lane id=":4599465043_c0_0" index="0" allow="pedestrian" speed="2.78" length="3.20" width="4.00" shape="97.17,95.77 97.03,92.57" outlineShape="95.17,95.86 95.03,92.66 98.99,91.67 97.31,91.58 95.03,92.66 99.02,92.48 99.17,95.68 98.48,97.25 99.11,96.11 98.34,95.91 97.69,95.81 97.03,95.78 96.24,95.81 95.17,95.86"/>
    </edge>
    <edge id=":4599465043_w0" function="walkingarea">
        <lane id=":4599465043_w0_0" index="0" allow="pedestrian" speed="2.78" length="1.58" width="4.00" shape="99.30,91.69 97.31,91.58 95.03,92.66 99.02,92.48"/>
    </edge>
    <edge id=":4599465043_w1" function="walkingarea">
        <lane id=":4599465043_w1_0" index="0" allow="pedestrian" speed="2.78" length="1.74" width="4.00" shape="95.17,95.86 96.27,97.23 98.20,97.77 99.11,96.11 98.34,95.91 97.69,95.81 97.03,95.78 96.24,95.81"/>
    </edge>
    <edge id=":4599465045_0" function="internal">
        <lane id=":4599465045_0_0" index="0" disallow="pedestrian tram rail_urban rail rail_electric rail_fast ship container cable_car subway aircraft wheelchair scooter drone" speed="13.89" length="25.42" shape="90.34,94.47 86.02,94.87 80.56,95.99 73.96,98.18 66.22,101.84"/>
    </edge>
    <edge id=":4599465045_1" function="internal">
        <lane id=":4599465045_1_0" index="0" disallow="pedestrian tram rail_urban rail rail_electric rail_fast ship container cable_car subway aircraft wheelchair scooter drone" speed="13.89" length="25.42" shape="88.66,89.94 66.22,101.84"/>
        <lane id=":4599465045_1_1" index="1" disallow="pedestrian tram rail_urban rail rail_electric rail_fast ship container cable_car subway aircraft wheelchair scooter drone" speed="13.89" length="25.42" shape="87.15,87.12 64.70,99.03"/>
        <lane id=":4599465045_1_2" index="2" disallow="pedestrian tram rail_urban rail rail_electric rail_fast ship container cable_car subway aircraft wheelchair scooter drone" speed="13.89" length="25.42" shape="85.65,84.30 63.17,96.21"/>
    </edge>
    <edge id=":5804776617_0" function="internal">
        <lane id=":5804776617_0_0" index="0" disallow="pedestrian tram rail_urban rail rail_electric rail_fast ship container cable_car subway aircraft wheelchair scooter drone" speed="13.89" length="5.84" shape="118.07,32.97 123.78,34.17"/>
    </edge>
    <edge id=":5804776617_c0" function="crossing" crossingEdges="182191279#0">
        <lane id=":5804776617_c0_0" index="0" allow="pedestrian" speed="2.78" length="3.20" width="4.00" shape="119.62,35.01 120.40,31.90" outlineShape="117.68,34.52 118.46,31.42 122.34,32.39 121.56,35.49 117.68,34.52"/>
    </edge>
    <edge id=":5804776617_w0" function="walkingarea">
        <lane id=":5804776617_w0_0" index="0" allow="pedestrian" speed="2.78" length="2.10" width="4.00" shape="123.02,30.93 121.11,30.31 118.46,31.42 122.34,32.39"/>
    </edge>
    <edge id=":5804776617_w1" function="walkingarea">
        <lane id=":5804776617_w1_0" index="0" allow="pedestrian" speed="2.78" length="0.64" width="4.00" shape="121.56,35.49 117.68,34.52 119.02,35.06 120.71,36.13"/>
    </edge>
    <edge id=":6010546040_0" function="internal">
        <lane id=":6010546040_0_0" index="0" disallow="pedestrian tram rail_urban rail rail_electric rail_fast ship container cable_car subway aircraft wheelchair scooter drone" speed="15.28" length="13.62" shape="117.52,107.26 114.65,104.08 112.34,101.88 110.15,100.05 107.62,97.95"/>
    </edge>
    <edge id=":6010546040_1" function="internal">
        <lane id=":6010546040_1_0" index="0" disallow="pedestrian tram rail_urban rail rail_electric rail_fast ship container cable_car subway aircraft wheelchair scooter drone" speed="16.67" length="13.86" shape="117.52,107.26 115.08,103.94 113.88,101.35 112.85,98.64 110.97,94.92"/>
        <lane id=":6010546040_1_1" index="1" disallow="pedestrian tram rail_urban rail rail_electric rail_fast ship container cable_car subway aircraft wheelchair scooter drone" speed="16.67" length="13.86" shape="119.95,105.18 117.54,101.88 116.36,99.31 115.37,96.61 113.51,92.92"/>
        <lane id=":6010546040_1_2" index="2" disallow="pedestrian tram rail_urban rail rail_electric rail_fast ship container cable_car subway aircraft wheelchair scooter drone" speed="16.67" length="13.86" shape="122.39,103.10 120.01,99.83 118.85,97.27 117.88,94.59 116.05,90.93"/>
        <lane id=":6010546040_1_3" index="3" disallow="pedestrian tram rail_urban rail rail_electric rail_fast ship container cable_car subway aircraft wheelchair scooter drone" speed="16.67" length="13.86" shape="124.82,101.02 122.47,97.77 121.34,95.23 120.40,92.57 118.59,88.93"/>
    </edge>
    <edge id=":6545382034_0" function="internal">
        <lane id=":6545382034_0_0" index="0" allow="delivery bicycle" speed="9.72" length="16.45" shape="88.34,126.29 88.14,130.23 87.26,134.37 85.94,138.43 84.43,142.13"/>
    </edge>
    <edge id=":6545382034_1" function="internal">
        <lane id=":6545382034_1_0" index="0" disallow="pedestrian tram rail_urban rail rail_electric rail_fast ship container cable_car subway aircraft wheelchair scooter drone" speed="11.53" length="18.16" shape="88.34,126.29 87.79,129.41 85.78,132.72 82.31,136.23 77.37,139.94"/>
    </edge>
    <edge id=":6545382034_2" function="internal">
        <lane id=":6545382034_2_0" index="0" disallow="pedestrian tram rail_urban rail rail_electric rail_fast ship container cable_car subway aircraft wheelchair scooter drone" speed="9.65" length="17.15" shape="74.28,138.03 79.21,135.96 82.67,133.35 84.65,130.19 85.15,126.48"/>
    </edge>
    <edge id=":6545382034_3" function="internal">
        <lane id=":6545382034_3_0" index="0" allow="delivery bicycle" speed="6.81" length="2.42" shape="74.28,138.03 76.63,137.47"/>
    </edge>
    <edge id=":6545382034_7" function="internal">
        <lane id=":6545382034_7_0" index="0" allow="delivery bicycle" speed="6.81" length="13.12" shape="76.63,137.47 80.14,136.63 83.78,136.85 85.21,138.68 84.43,142.13"/>
    </edge>
    <edge id=":6545382034_4" function="internal">
        <lane id=":6545382034_4_0" index="0" allow="delivery bicycle" speed="4.89" length="8.22" shape="81.15,141.64 81.92,139.27 81.54,138.20 80.03,138.42 77.37,139.94"/>
    </edge>
    <edge id=":6545382034_5" function="internal">
        <lane id=":6545382034_5_0" index="0" allow="delivery bicycle" speed="9.72" length="15.81" shape="81.15,141.64 82.67,138.05 84.02,134.22 84.94,130.31 85.15,126.48"/>
    </edge>
    <edge id=":6545382034_6" function="internal">
        <lane id=":6545382034_6_0" index="0" allow="pedestrian delivery bicycle" speed="3.70" length="4.85" shape="81.15,141.64 82.15,140.54 83.03,140.25 83.79,140.78 84.43,142.13"/>
    </edge>
    <edge id=":6545382034_w0" function="walkingarea">
        <lane id=":6545382034_w0_0" index="0" allow="pedestrian" speed="2.78" length="3.32" width="3.20" shape="79.68,141.00 82.61,142.29 82.97,141.48 85.89,142.78 89.73,128.54 88.83,130.96 87.23,133.44 84.94,135.98 81.95,138.59"/>
    </edge>
    <edge id=":6545382037_0" function="internal">
        <lane id=":6545382037_0_0" index="0" disallow="pedestrian tram rail_urban rail rail_electric rail_fast ship container cable_car subway aircraft wheelchair scooter drone" speed="3.65" length="4.67" shape="67.60,143.50 66.22,143.09 65.59,142.45 65.73,141.57 66.64,140.44"/>
    </edge>
    <edge id=":6545382041_0" function="internal">
        <lane id=":6545382041_0_0" index="0" allow="pedestrian delivery bicycle" speed="3.65" length="4.67" shape="82.26,147.02 81.04,147.79 80.15,147.83 79.58,147.14 79.34,145.72"/>
    </edge>
    <edge id=":8121224851_0" function="internal">
        <lane id=":8121224851_0_0" index="0" allow="pedestrian delivery bicycle" speed="3.65" length="4.67" shape="108.82,161.65 107.76,162.63 106.89,162.84 106.20,162.26 105.70,160.91"/>
    </edge>
    <edge id=":8121224852_0" function="internal">
        <lane id=":8121224852_0_0" index="0" allow="pedestrian delivery bicycle" speed="3.65" length="4.67" shape="85.82,148.42 84.54,149.07 83.64,149.02 83.14,148.28 83.04,146.84"/>
    </edge>
    <edge id=":J0_0" function="internal">
        <lane id=":J0_0_0" index="0" disallow="pedestrian" speed="13.89" length="0.27" shape="69.75,58.99 69.79,58.92 69.81,58.88 69.84,58.83 69.86,58.75"/>
    </edge>
    <edge id=":cluster_10918222220_6010585445_6545382044_0" function="internal">
        <lane id=":cluster_10918222220_6010585445_6545382044_0_0" index="0" disallow="pedestrian tram rail_urban rail rail_electric rail_fast ship container cable_car subway aircraft wheelchair scooter drone" speed="8.17" length="15.61" shape="85.14,126.28 84.44,120.44 83.16,116.37 81.30,114.07 78.86,113.54"/>
    </edge>
    <edge id=":cluster_10918222220_6010585445_6545382044_1" function="internal">
        <lane id=":cluster_10918222220_6010585445_6545382044_1_0" index="0" disallow="pedestrian tram rail_urban rail rail_electric rail_fast ship container cable_car subway aircraft wheelchair scooter drone" speed="3.65" length="4.67" shape="85.14,126.28 85.86,125.04 86.64,124.59 87.46,124.94 88.33,126.09"/>
    </edge>
    <edge id=":cluster_10918222220_6010585445_6545382044_2" function="internal">
        <lane id=":cluster_10918222220_6010585445_6545382044_2_0" index="0" disallow="pedestrian tram rail_urban rail rail_electric rail_fast ship container cable_car subway aircraft wheelchair scooter drone" speed="7.87" length="17.09" shape="96.52,114.78 92.63,114.57 89.97,116.38 88.53,120.22 88.33,126.09"/>
    </edge>
    <edge id=":cluster_10918222220_6010585445_6545382044_3" function="internal">
        <lane id=":cluster_10918222220_6010585445_6545382044_3_0" index="0" disallow="pedestrian tram rail_urban rail rail_electric rail_fast ship container cable_car subway aircraft wheelchair scooter drone" speed="13.89" length="17.79" shape="96.52,114.78 92.42,113.94 87.74,113.43 83.03,113.28 78.86,113.54"/>
    </edge>
    <edge id=":cluster_10918222220_6010585445_6545382044_c0" function="crossing" crossingEdges="637580124#1">
        <lane id=":cluster_10918222220_6010585445_6545382044_c0_0" index="0" allow="pedestrian" speed="2.78" length="3.20" width="4.00" shape="95.01,112.71 94.17,115.80" outlineShape="96.94,113.24 96.10,116.32 94.02,116.07 92.36,116.57 91.71,117.22 93.08,112.19 96.94,113.24 94.57,110.86 92.64,110.32 93.08,112.19"/>
    </edge>
    <edge id=":cluster_10918222220_6010585445_6545382044_w0" function="walkingarea">
        <lane id=":cluster_10918222220_6010585445_6545382044_w0_0" index="0" allow="pedestrian" speed="2.78" length="8.29" width="4.00" shape="93.77,125.07 94.21,123.11 96.10,116.32 94.02,116.07 92.36,116.57 91.13,117.81 90.31,119.79 89.91,122.52"/>
    </edge>
    <edge id=":cluster_10918222220_6010585445_6545382044_w1" function="walkingarea">
        <lane id=":cluster_10918222220_6010585445_6545382044_w1_0" index="0" allow="pedestrian" speed="2.78" length="2.54" width="4.00" shape="93.08,112.19 96.94,113.24 94.57,110.86 92.64,110.32"/>
    </edge>
    <edge id=":cluster_10918222226_6545382029_6545382046_0" function="internal">
        <lane id=":cluster_10918222226_6545382029_6545382046_0_0" index="0" allow="delivery bicycle" speed="7.13" length="16.13" shape="120.72,134.49 118.62,133.40 116.59,134.86 114.63,138.86 112.72,145.40"/>
    </edge>
    <edge id=":cluster_10918222226_6545382029_6545382046_1" function="internal">
        <lane id=":cluster_10918222226_6545382029_6545382046_1_0" index="0" allow="delivery bicycle" speed="9.72" length="15.53" shape="120.72,134.49 117.88,134.19 114.57,136.99 111.02,140.13 107.49,140.81"/>
    </edge>
    <edge id=":cluster_10918222226_6545382029_6545382046_2" function="internal">
        <lane id=":cluster_10918222226_6545382029_6545382046_2_0" index="0" disallow="pedestrian tram rail_urban rail rail_electric rail_fast ship container cable_car subway aircraft wheelchair scooter drone" speed="13.89" length="6.09" shape="120.72,134.49 119.44,133.20 118.50,132.37 117.65,131.48 116.66,129.99"/>
    </edge>
    <edge id=":cluster_10918222226_6545382029_6545382046_3" function="internal">
        <lane id=":cluster_10918222226_6545382029_6545382046_3_0" index="0" allow="delivery bicycle" speed="7.48" length="21.01" shape="108.50,137.77 115.37,140.00 119.02,139.45 119.45,136.11 116.66,129.99"/>
    </edge>
    <edge id=":cluster_10918222226_6545382029_6545382046_4" function="internal">
        <lane id=":cluster_10918222226_6545382029_6545382046_4_0" index="0" allow="pedestrian delivery bicycle" speed="5.56" length="9.62" shape="108.50,137.77 110.82,139.12 112.30,140.85 112.93,142.94 112.72,145.40"/>
    </edge>
    <edge id=":cluster_10918222226_6545382029_6545382046_5" function="internal">
        <lane id=":cluster_10918222226_6545382029_6545382046_5_0" index="0" allow="pedestrian delivery bicycle" speed="3.65" length="4.69" shape="108.50,137.77 109.39,138.91 109.52,139.80 108.88,140.43 107.49,140.81"/>
    </edge>
    <edge id=":cluster_10918222226_6545382029_6545382046_6" function="internal">
        <lane id=":cluster_10918222226_6545382029_6545382046_6_0" index="0" allow="pedestrian delivery bicycle" speed="5.26" length="4.83" shape="109.61,144.65 109.71,143.42 109.40,142.36 108.65,141.50 107.49,140.81"/>
    </edge>
    <edge id=":cluster_10918222226_6545382029_6545382046_7" function="internal">
        <lane id=":cluster_10918222226_6545382029_6545382046_7_0" index="0" allow="delivery bicycle" speed="9.72" length="16.80" shape="109.61,144.65 111.56,140.92 114.52,137.12 116.79,133.42 116.66,129.99"/>
    </edge>
    <edge id=":cluster_10918222226_6545382029_6545382046_8" function="internal">
        <lane id=":cluster_10918222226_6545382029_6545382046_8_0" index="0" allow="pedestrian delivery bicycle" speed="3.65" length="4.67" shape="109.61,144.65 110.67,143.67 111.54,143.47 112.22,144.05 112.72,145.40"/>
    </edge>
    <edge id=":cluster_10918222226_6545382029_6545382046_w0" function="walkingarea">
        <lane id=":cluster_10918222226_6545382029_6545382046_w0_0" index="0" allow="pedestrian" speed="2.78" length="6.57" width="3.20" shape="110.06,133.56 108.65,134.98 109.13,136.30 107.87,139.24 108.12,139.34 106.86,142.29 108.05,144.28 111.16,145.03 114.27,145.77 113.29,139.92 114.91,138.74 118.58,134.57 117.84,133.88 117.21,133.32 116.62,132.73 116.01,131.94"/>
    </edge>
    <edge id=":cluster_1791225033_1791225037_1925359954_1925359955_#8more_0" function="internal">
        <lane id=":cluster_1791225033_1791225037_1925359954_1925359955_#8more_0_0" index="0" disallow="pedestrian tram rail_urban rail rail_electric rail_fast ship container cable_car subway aircraft wheelchair scooter drone" speed="9.82" length="17.16" shape="109.47,92.36 106.04,88.27 101.83,86.29 96.83,86.42 94.81,87.21"/>
    </edge>
    <edge id=":cluster_1791225033_1791225037_1925359954_1925359955_#8more_1" function="internal">