<?xml version="1.0" encoding="UTF-8"?>

<!-- generated on 2024-11-08 23:20:10 by Eclipse SUMO netedit Version v1_21_0+0659-43b65d492c5
<neteditConfiguration xmlns:xsi="http://www.w3.org/2001/XMLSchema-instance" xsi:noNamespaceSchemaLocation="http://sumo.dlr.de/xsd/neteditConfiguration.xsd">

    <input>
        <sumocfg-file value="sumo_config.sumocfg"/>
        <additional-files value=""/>
        <route-files value="/Users/yasmeensaeed/Desktop/Deep-QLearning-Agent-for-Traffic-Signal-Control-master/TLCS/intersection/abudhabi-intersection-train/osm-all.rou.xml"/>
        <sumo-net-file value="/Users/yasmeensaeed/Desktop/Deep-QLearning-Agent-for-Traffic-Signal-Control-master/TLCS/intersection/abudhabi-intersection-train/osm.net.xml"/>
    </input>

    <output>
        <output-file value="/Users/yasmeensaeed/Desktop/Deep-QLearning-Agent-for-Traffic-Signal-Control-master/TLCS/intersection/abudhabi-intersection-train/osm.net.xml"/>
        <output.street-names value="true"/>
    </output>

    <processing>
        <geometry.min-radius.fix.railways value="false"/>
        <geometry.max-grade.fix value="false"/>
        <offset.disable-normalization value="true"/>
        <lefthand value="0"/>
    </processing>

    <junctions>
        <no-internal-links value="false"/>
        <no-turnarounds value="true"/>
        <junctions.corner-detail value="5"/>
        <junctions.limit-turn-speed value="5.50"/>
        <rectangular-lane-cut value="0"/>
    </junctions>

    <pedestrian>
        <walkingareas value="1"/>
    </pedestrian>

    <netedit>
        <ignore.routeelements value="false"/>
    </netedit>

</neteditConfiguration>
-->

<net version="1.20" junctionCornerDetail="5" walkingareas="true" limitTurnSpeed="5.50" xmlns:xsi="http://www.w3.org/2001/XMLSchema-instance" xsi:noNamespaceSchemaLocation="http://sumo.dlr.de/xsd/net_file.xsd">

    <location netOffset="-236867.04,-2711183.16" convBoundary="-25.21,-50.77,177.50,128.91" origBoundary="54.403534,24.492120,54.405761,24.493807" projParameter="+proj=utm +zone=40 +ellps=WGS84 +datum=WGS84 +units=m +no_defs"/>

    <type id="highway.footway" priority="1" numLanes="1" speed="2.78" allow="pedestrian" oneway="1" width="2.00"/>
    <type id="highway.path" priority="1" numLanes="1" speed="5.56" allow="pedestrian bicycle" oneway="0" width="2.00"/>
    <type id="highway.secondary" priority="11" numLanes="1" speed="13.89" disallow="pedestrian tram rail_urban rail rail_electric rail_fast ship container cable_car subway aircraft wheelchair scooter drone" oneway="0" sidewalkWidth="3.00"/>
    <type id="highway.secondary_link" priority="6" numLanes="1" speed="13.89" disallow="pedestrian tram rail_urban rail rail_electric rail_fast ship container cable_car subway aircraft wheelchair scooter drone" oneway="0" sidewalkWidth="3.00"/>
    <type id="highway.tertiary" priority="10" numLanes="1" speed="13.89" disallow="pedestrian tram rail_urban rail rail_electric rail_fast ship container cable_car subway aircraft wheelchair scooter drone" oneway="0" sidewalkWidth="3.00"/>

    <edge id=":4589147749_0" function="internal">
        <lane id=":4589147749_0_0" index="0" allow="pedestrian bicycle" speed="2.89" length="2.92" width="2.00" shape="127.42,27.47 128.02,28.15 128.12,28.69 127.75,29.11 126.90,29.39"/>
    </edge>
    <edge id=":4589147750_0" function="internal">
        <lane id=":4589147750_0_0" index="0" allow="pedestrian bicycle" speed="2.89" length="2.92" width="2.00" shape="117.29,26.25 116.75,25.52 116.69,24.97 117.10,24.58 117.97,24.37"/>
    </edge>
    <edge id=":4589147961_0" function="internal">
        <lane id=":4589147961_0_0" index="0" allow="pedestrian bicycle" speed="5.56" length="4.91" width="2.00" shape="125.19,28.93 120.51,27.43"/>
    </edge>
    <edge id=":4589147961_1" function="internal">
        <lane id=":4589147961_1_0" index="0" allow="pedestrian bicycle" speed="2.89" length="2.48" width="2.00" shape="125.19,28.93 124.60,28.25 124.49,27.70 124.86,27.28 125.30,27.14"/>
    </edge>
    <edge id=":4589147961_4" function="internal">
        <lane id=":4589147961_4_0" index="0" allow="pedestrian bicycle" speed="2.89" length="0.44" width="2.00" shape="125.30,27.14 125.72,27.00"/>
    </edge>
    <edge id=":4589147961_2" function="internal">
        <lane id=":4589147961_2_0" index="0" allow="pedestrian bicycle" speed="5.56" length="4.74" width="2.00" shape="121.20,25.56 125.72,27.00"/>
    </edge>
    <edge id=":4589147961_3" function="internal">
        <lane id=":4589147961_3_0" index="0" allow="pedestrian bicycle" speed="2.89" length="0.79" width="2.00" shape="121.20,25.56 121.67,26.20"/>
    </edge>
    <edge id=":4589147961_5" function="internal">
        <lane id=":4589147961_5_0" index="0" allow="pedestrian bicycle" speed="2.89" length="2.13" width="2.00" shape="121.67,26.20 121.73,26.28 121.79,26.84 121.39,27.22 120.51,27.43"/>
    </edge>
    <edge id=":4589147961_w0" function="walkingarea">
        <lane id=":4589147961_w0_0" index="0" allow="pedestrian" speed="2.78" length="4.08" width="4.00" shape="124.93,29.89 125.98,26.03 121.54,24.62 120.17,28.37 120.90,28.82 121.11,29.12 121.21,29.47 121.21,29.87 121.11,30.32 123.01,30.93 123.43,30.18 123.72,29.96 124.07,29.83 124.47,29.81"/>
    </edge>
    <edge id=":4589147962_w0" function="walkingarea">
        <lane id=":4589147962_w0_0" index="0" allow="pedestrian" speed="2.78" length="1.70" width="2.00" shape="119.54,39.40 121.31,38.46 120.87,37.33 120.80,36.81 120.82,36.32 120.94,35.86 121.16,35.42 119.48,34.34 118.59,35.62 118.21,36.02 117.78,36.37 117.23,36.75 116.48,37.24 117.59,38.91 118.36,38.60 118.70,38.62 119.01,38.76 119.29,39.02"/>
    </edge>
    <edge id=":4589147964_w0" function="walkingarea">
        <lane id=":4589147964_w0_0" index="0" allow="pedestrian" speed="2.78" length="1.25" width="2.00" shape="79.33,64.02 81.05,63.00 80.77,62.20 80.79,61.83 80.93,61.50 81.19,61.19 81.55,60.91 80.48,59.22 79.06,60.57 78.74,61.34 78.68,62.18 78.88,63.07"/>
    </edge>
    <edge id=":4589147966_w0" function="walkingarea">
        <lane id=":4589147966_w0_0" index="0" allow="pedestrian" speed="2.78" length="2.18" width="4.00" shape="139.14,69.52 139.58,67.57 138.38,67.18 138.00,66.92 137.69,66.57 137.37,66.10 136.98,65.48 135.29,66.56 135.60,67.35 135.58,67.71 135.45,68.04 135.20,68.34 134.84,68.62 135.90,70.31 137.01,69.63 137.44,69.45 137.89,69.37 138.43,69.39"/>
    </edge>
    <edge id=":4589147968_w0" function="walkingarea">
        <lane id=":4589147968_w0_0" index="0" allow="pedestrian" speed="2.78" length="1.67" width="4.00" shape="100.85,89.75 99.93,87.97 99.07,88.24 98.67,88.22 98.28,88.11 97.91,87.90 97.55,87.59 96.12,88.98 96.81,89.88 97.04,90.36 97.20,90.86 97.28,91.37 97.29,91.90 99.29,92.01 99.50,91.10 99.72,90.70 100.02,90.34 100.39,90.02"/>
    </edge>
    <edge id=":E2NJ_0" function="internal">
        <lane id=":E2NJ_0_0" index="0" disallow="pedestrian tram rail_urban rail rail_electric rail_fast ship container cable_car subway aircraft wheelchair scooter drone" speed="13.89" length="5.40" shape="144.26,66.87 143.80,68.41 143.55,69.48 143.42,70.57 143.33,72.16"/>
    </edge>
    <edge id=":E2NJ_c0" function="crossing" crossingEdges="E2JN">
        <lane id=":E2NJ_c0_0" index="0" allow="pedestrian" speed="2.78" length="3.20" width="4.00" shape="142.14,68.32 145.20,69.25" outlineShape="142.73,66.40 145.79,67.34 145.48,68.36 145.27,69.12 145.13,69.75 145.04,70.40 144.98,71.18 146.49,71.00 144.61,71.17 141.55,70.23 142.68,66.44 140.72,67.83 140.29,69.78"/>
    </edge>
    <edge id=":E2NJ_w0" function="walkingarea">
        <lane id=":E2NJ_w0_0" index="0" allow="pedestrian" speed="2.78" length="1.64" width="4.00" shape="146.49,71.00 146.83,69.02 145.79,67.34 145.48,68.36 145.27,69.12 145.13,69.75 145.04,70.40 144.98,71.18"/>
    </edge>
    <edge id=":E2NJ_w1" function="walkingarea">
        <lane id=":E2NJ_w1_0" index="0" allow="pedestrian" speed="2.78" length="1.71" width="4.00" shape="141.55,70.23 142.73,66.40 140.72,67.83 140.29,69.78"/>
    </edge>
    <edge id=":N2WJ_0" function="internal">
        <lane id=":N2WJ_0_0" index="0" disallow="pedestrian tram rail_urban rail rail_electric rail_fast ship container cable_car subway aircraft wheelchair scooter drone" speed="13.89" length="4.44" shape="100.19,94.76 98.94,94.38 98.05,94.21 97.14,94.17 95.83,94.23"/>
    </edge>
    <edge id=":S2EJ_0" function="internal">
        <lane id=":S2EJ_0_0" index="0" disallow="pedestrian tram rail_urban rail rail_electric rail_fast ship container cable_car subway aircraft wheelchair scooter drone" speed="13.89" length="5.84" shape="118.07,32.97 123.78,34.17"/>
    </edge>
    <edge id=":S2EJ_c0" function="crossing" crossingEdges="S2JE">
        <lane id=":S2EJ_c0_0" index="0" allow="pedestrian" speed="2.78" length="3.20" width="4.00" shape="119.62,35.01 120.40,31.90" outlineShape="117.68,34.52 118.46,31.42 122.34,32.39 121.56,35.49"/>
    </edge>
    <edge id=":S2EJ_w0" function="walkingarea">
        <lane id=":S2EJ_w0_0" index="0" allow="pedestrian" speed="2.78" length="2.10" width="4.00" shape="123.02,30.93 121.11,30.31 118.46,31.42 122.34,32.39"/>
    </edge>
    <edge id=":S2EJ_w1" function="walkingarea">
        <lane id=":S2EJ_w1_0" index="0" allow="pedestrian" speed="2.78" length="0.64" width="4.00" shape="121.56,35.49 117.68,34.52 119.02,35.06 120.71,36.13"/>
    </edge>
    <edge id=":TL_0" function="internal">
        <lane id=":TL_0_0" index="0" disallow="pedestrian tram rail_urban rail rail_electric rail_fast ship container cable_car subway aircraft wheelchair scooter drone" speed="9.82" length="17.16" shape="109.47,92.36 106.04,88.27 101.83,86.29 96.83,86.42 94.81,87.21"/>
    </edge>
    <edge id=":TL_1" function="internal">
        <lane id=":TL_1_0" index="0" disallow="pedestrian tram rail_urban rail rail_electric rail_fast ship container cable_car subway aircraft wheelchair scooter drone" speed="13.89" length="46.64" shape="109.47,92.36 84.61,51.71"/>
        <lane id=":TL_1_1" index="1" disallow="pedestrian tram rail_urban rail rail_electric rail_fast ship container cable_car subway aircraft wheelchair scooter drone" speed="13.89" length="46.64" shape="112.02,90.38 87.49,50.32"/>
        <lane id=":TL_1_2" index="2" disallow="pedestrian tram rail_urban rail rail_electric rail_fast ship container cable_car subway aircraft wheelchair scooter drone" speed="13.89" length="46.64" shape="114.57,88.40 90.37,48.93"/>
        <lane id=":TL_1_3" index="3" disallow="pedestrian tram rail_urban rail rail_electric rail_fast ship container cable_car subway aircraft wheelchair scooter drone" speed="13.89" length="46.64" shape="117.12,86.43 93.26,47.53"/>
    </edge>
    <edge id=":TL_5" function="internal">
        <lane id=":TL_5_0" index="0" disallow="pedestrian tram rail_urban rail rail_electric rail_fast ship container cable_car subway aircraft wheelchair scooter drone" speed="14.00" length="42.43" shape="117.12,86.43 112.42,74.81 112.75,64.45 118.12,55.37 125.30,49.98"/>
    </edge>
    <edge id=":TL_6" function="internal">
        <lane id=":TL_6_0" index="0" disallow="pedestrian tram rail_urban rail rail_electric rail_fast ship container cable_car subway aircraft wheelchair scooter drone" speed="5.99" length="15.78" shape="117.12,86.43 116.77,81.57 118.08,78.85 121.04,78.27 125.66,79.82"/>
    </edge>
    <edge id=":TL_26" function="internal">
        <lane id=":TL_26_0" index="0" disallow="pedestrian tram rail_urban rail rail_electric rail_fast ship container cable_car subway aircraft wheelchair scooter drone" speed="9.82" length="4.03" shape="94.81,87.21 91.05,88.67"/>
    </edge>
    <edge id=":TL_27" function="internal">
        <lane id=":TL_27_0" index="0" disallow="pedestrian tram rail_urban rail rail_electric rail_fast ship container cable_car subway aircraft wheelchair scooter drone" speed="14.00" length="4.04" shape="125.30,49.98 128.53,47.55"/>
    </edge>
    <edge id=":TL_7" function="internal">
        <lane id=":TL_7_0" index="0" disallow="pedestrian tram rail_urban rail rail_electric rail_fast ship container cable_car subway aircraft wheelchair scooter drone" speed="8.12" length="11.45" shape="135.91,60.85 132.57,63.76 131.01,66.92 131.23,70.31 131.28,70.40"/>
    </edge>
    <edge id=":TL_8" function="internal">
        <lane id=":TL_8_0" index="0" disallow="pedestrian tram rail_urban rail rail_electric rail_fast ship container cable_car subway aircraft wheelchair scooter drone" speed="18.05" length="52.75" shape="135.91,60.85 125.48,67.69 113.75,75.20 101.88,82.50 91.05,88.67"/>
        <lane id=":TL_8_1" index="1" disallow="pedestrian tram rail_urban rail rail_electric rail_fast ship container cable_car subway aircraft wheelchair scooter drone" speed="18.05" length="52.75" shape="134.35,58.05 123.93,64.88 112.21,72.39 100.36,79.68 89.54,85.84"/>
        <lane id=":TL_8_2" index="2" disallow="pedestrian tram rail_urban rail rail_electric rail_fast ship container cable_car subway aircraft wheelchair scooter drone" speed="18.05" length="52.75" shape="132.80,55.24 122.38,62.07 110.68,69.58 98.85,76.86 88.03,83.02"/>
    </edge>
    <edge id=":TL_11" function="internal">
        <lane id=":TL_11_0" index="0" disallow="pedestrian tram rail_urban rail rail_electric rail_fast ship container cable_car subway aircraft wheelchair scooter drone" speed="13.78" length="44.56" shape="132.80,55.24 120.10,62.06 109.67,63.56 100.92,58.97 95.50,50.89"/>
    </edge>
    <edge id=":TL_12" function="internal">
        <lane id=":TL_12_0" index="0" disallow="pedestrian tram rail_urban rail rail_electric rail_fast ship container cable_car subway aircraft wheelchair scooter drone" speed="5.44" length="12.84" shape="132.80,55.24 128.85,54.92 126.82,53.53 126.71,51.07 128.53,47.55"/>
    </edge>
    <edge id=":TL_28" function="internal">
        <lane id=":TL_28_0" index="0" disallow="pedestrian tram rail_urban rail rail_electric rail_fast ship container cable_car subway aircraft wheelchair scooter drone" speed="8.12" length="4.05" shape="131.28,70.40 133.25,73.94"/>
    </edge>
    <edge id=":TL_29" function="internal">
        <lane id=":TL_29_0" index="0" disallow="pedestrian tram rail_urban rail rail_electric rail_fast ship container cable_car subway aircraft wheelchair scooter drone" speed="13.78" length="4.04" shape="95.50,50.89 93.26,47.53"/>
    </edge>
    <edge id=":TL_13" function="internal">
        <lane id=":TL_13_0" index="0" disallow="pedestrian tram rail_urban rail rail_electric rail_fast ship container cable_car subway aircraft wheelchair scooter drone" speed="8.70" length="13.56" shape="110.34,39.27 112.89,42.70 116.25,44.29 120.43,44.04 121.71,43.51"/>
    </edge>
    <edge id=":TL_14" function="internal">
        <lane id=":TL_14_0" index="0" disallow="pedestrian tram rail_urban rail rail_electric rail_fast ship container cable_car subway aircraft wheelchair scooter drone" speed="13.89" length="42.67" shape="110.34,39.27 115.92,50.03 120.51,57.41 125.74,64.38 133.25,73.94"/>
        <lane id=":TL_14_1" index="1" disallow="pedestrian tram rail_urban rail rail_electric rail_fast ship container cable_car subway aircraft wheelchair scooter drone" speed="13.89" length="42.67" shape="107.46,40.66 113.10,51.52 117.81,59.08 123.16,66.25 130.72,75.90"/>
        <lane id=":TL_14_2" index="2" disallow="pedestrian tram rail_urban rail rail_electric rail_fast ship container cable_car subway aircraft wheelchair scooter drone" speed="13.89" length="42.67" shape="104.58,42.06 110.27,53.00 115.10,60.76 120.57,68.12 128.19,77.86"/>
        <lane id=":TL_14_3" index="3" disallow="pedestrian tram rail_urban rail rail_electric rail_fast ship container cable_car subway aircraft wheelchair scooter drone" speed="13.89" length="42.67" shape="101.70,43.45 107.45,54.48 112.40,62.43 117.99,69.99 125.66,79.82"/>
    </edge>
    <edge id=":TL_18" function="internal">
        <lane id=":TL_18_0" index="0" disallow="pedestrian tram rail_urban rail rail_electric rail_fast ship container cable_car subway aircraft wheelchair scooter drone" speed="12.50" length="43.36" shape="101.70,43.45 105.56,55.51 104.58,66.12 98.73,75.29 91.31,80.66"/>
    </edge>
    <edge id=":TL_19" function="internal">
        <lane id=":TL_19_0" index="0" disallow="pedestrian tram rail_urban rail rail_electric rail_fast ship container cable_car subway aircraft wheelchair scooter drone" speed="5.53" length="13.69" shape="101.70,43.45 101.12,47.64 99.52,49.71 96.90,49.68 93.26,47.53"/>
    </edge>
    <edge id=":TL_30" function="internal">
        <lane id=":TL_30_0" index="0" disallow="pedestrian tram rail_urban rail rail_electric rail_fast ship container cable_car subway aircraft wheelchair scooter drone" speed="8.70" length="4.03" shape="121.71,43.51 125.42,41.96"/>
    </edge>
    <edge id=":TL_31" function="internal">
        <lane id=":TL_31_0" index="0" disallow="pedestrian tram rail_urban rail rail_electric rail_fast ship container cable_car subway aircraft wheelchair scooter drone" speed="12.50" length="4.04" shape="91.31,80.66 88.03,83.02"/>
    </edge>
    <edge id=":TL_20" function="internal">
        <lane id=":TL_20_0" index="0" disallow="pedestrian tram rail_urban rail rail_electric rail_fast ship container cable_car subway aircraft wheelchair scooter drone" speed="9.69" length="17.36" shape="81.23,70.28 85.21,67.32 87.10,63.24 86.90,58.04 85.98,55.50"/>
    </edge>
    <edge id=":TL_21" function="internal">
        <lane id=":TL_21_0" index="0" disallow="pedestrian tram rail_urban rail rail_electric rail_fast ship container cable_car subway aircraft wheelchair scooter drone" speed="18.05" length="52.57" shape="81.23,70.28 92.00,64.15 103.48,56.43 114.89,48.55 125.42,41.96"/>
        <lane id=":TL_21_1" index="1" disallow="pedestrian tram rail_urban rail rail_electric rail_fast ship container cable_car subway aircraft wheelchair scooter drone" speed="18.05" length="52.57" shape="82.74,73.11 93.52,66.97 105.02,59.24 116.43,51.35 126.97,44.75"/>
        <lane id=":TL_21_2" index="2" disallow="pedestrian tram rail_urban rail rail_electric rail_fast ship container cable_car subway aircraft wheelchair scooter drone" speed="18.05" length="52.57" shape="84.25,75.93 94.99,69.70 106.51,61.97 117.97,54.12 128.53,47.55"/>
    </edge>
    <edge id=":TL_24" function="internal">
        <lane id=":TL_24_0" index="0" disallow="pedestrian tram rail_urban rail rail_electric rail_fast ship container cable_car subway aircraft wheelchair scooter drone" speed="15.14" length="41.35" shape="84.25,75.93 97.22,71.00 108.45,70.01 117.93,72.94 122.62,77.11"/>
    </edge>
    <edge id=":TL_25" function="internal">
        <lane id=":TL_25_0" index="0" disallow="pedestrian tram rail_urban rail rail_electric rail_fast ship container cable_car subway aircraft wheelchair scooter drone" speed="5.20" length="11.74" shape="84.25,75.93 87.85,76.28 89.69,77.58 89.75,79.83 88.03,83.02"/>
    </edge>
    <edge id=":TL_32" function="internal">
        <lane id=":TL_32_0" index="0" disallow="pedestrian tram rail_urban rail rail_electric rail_fast ship container cable_car subway aircraft wheelchair scooter drone" speed="9.69" length="4.02" shape="85.98,55.50 84.61,51.71"/>
    </edge>
    <edge id=":TL_33" function="internal">
        <lane id=":TL_33_0" index="0" disallow="pedestrian tram rail_urban rail rail_electric rail_fast ship container cable_car subway aircraft wheelchair scooter drone" speed="15.14" length="4.07" shape="122.62,77.11 125.66,79.82"/>
    </edge>
    <edge id=":TL_c0" function="crossing" crossingEdges="N2TL">
        <lane id=":TL_c0_0" index="0" allow="pedestrian" speed="2.78" length="12.86" width="4.00" shape="117.48,83.89 107.07,91.44" outlineShape="118.66,85.51 108.25,93.06 105.90,89.82 116.31,82.28 118.73,85.45 116.31,82.28"/>
    </edge>
    <edge id=":TL_c1" function="crossing" crossingEdges="TL2N">
        <lane id=":TL_c1_0" index="0" allow="pedestrian" speed="2.78" length="12.80" width="4.00" shape="133.29,71.38 123.17,79.22" outlineShape="134.51,72.96 124.39,80.80 118.66,85.51 116.31,82.28 120.40,78.91 121.94,77.63 132.06,69.79"/>
    </edge>
    <edge id=":TL_c2" function="crossing" crossingEdges="E2TL">
        <lane id=":TL_c2_0" index="0" allow="pedestrian" speed="2.78" length="9.62" width="4.00" shape="130.24,55.00 135.12,63.29" outlineShape="131.97,53.99 136.85,62.28 133.40,64.31 134.61,65.88 133.40,64.31 128.52,56.02 131.97,53.99 128.52,56.02 127.58,54.25"/>
    </edge>
    <edge id=":TL_c3" function="crossing" crossingEdges="TL2E">
        <lane id=":TL_c3_0" index="0" allow="pedestrian" speed="2.78" length="9.60" width="4.00" shape="122.90,41.53 127.56,49.92" outlineShape="124.64,40.56 129.31,48.95 131.97,53.99 128.52,56.02 125.81,50.89 120.16,40.72 121.29,41.01 123.06,41.04"/>
    </edge>
    <edge id=":TL_c4" function="crossing" crossingEdges="S2TL">
        <lane id=":TL_c4_0" index="0" allow="pedestrian" speed="2.78" length="12.80" width="4.00" shape="101.14,45.95 112.66,40.36" outlineShape="100.27,44.15 111.78,38.56 113.53,42.16 115.08,40.96 113.53,42.16 102.02,47.75 100.27,44.15 102.02,47.75 100.22,48.62"/>
    </edge>
    <edge id=":TL_c5" function="crossing" crossingEdges="TL2S">
        <lane id=":TL_c5_0" index="0" allow="pedestrian" speed="2.78" length="12.80" width="4.00" shape="84.04,54.21 95.57,48.64" outlineShape="83.17,52.41 94.70,46.84 96.44,50.44 94.70,46.84 96.44,50.44 83.91,56.49 83.88,54.93"/>
    </edge>
    <edge id=":TL_c6" function="crossing" crossingEdges="W2TL">
        <lane id=":TL_c6_0" index="0" allow="pedestrian" speed="2.78" length="9.57" width="4.00" shape="86.75,76.47 82.35,67.97" outlineShape="84.98,77.39 80.57,68.90 84.12,67.05 82.96,65.45 84.12,67.05 88.53,75.55 84.98,77.39 88.53,75.55"/>
    </edge>
    <edge id=":TL_c7" function="crossing" crossingEdges="TL2W">
        <lane id=":TL_c7_0" index="0" allow="pedestrian" speed="2.78" length="9.60" width="4.00" shape="93.57,89.14 89.04,80.67" outlineShape="91.80,90.08 87.23,81.52 90.81,79.73 87.28,81.61 90.81,79.73 95.33,88.19 91.80,90.08 97.10,89.99 98.53,88.59 95.33,88.19"/>
    </edge>
    <edge id=":TL_w0" function="walkingarea">
        <lane id=":TL_w0_0" index="0" allow="pedestrian" speed="2.78" length="4.21" width="4.00" shape="132.06,69.79 134.51,72.96 137.09,69.57 136.02,67.88"/>
    </edge>
    <edge id=":TL_w1" function="walkingarea">
        <lane id=":TL_w1_0" index="0" allow="pedestrian" speed="2.78" length="4.29" width="4.00" shape="136.05,67.74 137.73,66.66 136.85,62.28 133.40,64.31"/>
    </edge>
    <edge id=":TL_w2" function="walkingarea">
        <lane id=":TL_w2_0" index="0" allow="pedestrian" speed="2.78" length="4.95" width="4.00" shape="124.64,40.56 120.65,37.23 118.88,38.17 118.07,39.03 118.48,39.89 119.66,40.59 121.29,41.01 123.06,41.04"/>
    </edge>
    <edge id=":TL_w3" function="walkingarea">
        <lane id=":TL_w3_0" index="0" allow="pedestrian" speed="2.78" length="6.33" width="4.00" shape="118.75,38.14 117.65,36.47 111.78,38.56 113.53,42.16"/>
    </edge>
    <edge id=":TL_w4" function="walkingarea">
        <lane id=":TL_w4_0" index="0" allow="pedestrian" speed="2.78" length="7.83" width="4.00" shape="83.17,52.41 79.30,59.97 80.37,61.66 81.57,62.87 82.66,62.22 83.50,60.34 83.94,57.74 83.88,54.93"/>
    </edge>
    <edge id=":TL_w5" function="walkingarea">
        <lane id=":TL_w5_0" index="0" allow="pedestrian" speed="2.78" length="6.35" width="4.00" shape="80.34,61.80 78.62,62.82 80.57,68.90 84.12,67.05"/>
    </edge>
    <edge id=":TL_w6" function="walkingarea">
        <lane id=":TL_w6_0" index="0" allow="pedestrian" speed="2.78" length="4.25" width="4.00" shape="95.33,88.19 91.80,90.08 97.10,89.99 98.53,88.59"/>
    </edge>
    <edge id=":TL_w7" function="walkingarea">
        <lane id=":TL_w7_0" index="0" allow="pedestrian" speed="2.78" length="8.16" width="4.00" shape="98.69,88.62 99.61,90.39 108.25,93.06 105.90,89.82"/>
    </edge>
    <edge id=":TL_w8" function="walkingarea">
        <lane id=":TL_w8_0" index="0" allow="pedestrian" speed="2.78" length="7.36" width="4.00" shape="121.94,77.63 124.39,80.80 118.66,85.51 116.31,82.28"/>
    </edge>
    <edge id=":TL_w9" function="walkingarea">
        <lane id=":TL_w9_0" index="0" allow="pedestrian" speed="2.78" length="5.74" width="4.00" shape="125.81,50.89 129.31,48.95 131.97,53.99 128.52,56.02"/>
    </edge>
    <edge id=":TL_w10" function="walkingarea">
        <lane id=":TL_w10_0" index="0" allow="pedestrian" speed="2.78" length="6.19" width="4.00" shape="96.44,50.44 94.70,46.84 100.27,44.15 102.02,47.75"/>
    </edge>
    <edge id=":TL_w11" function="walkingarea">
        <lane id=":TL_w11_0" index="0" allow="pedestrian" speed="2.78" length="4.78" width="4.00" shape="90.81,79.73 87.28,81.61 84.98,77.39 88.53,75.55"/>
    </edge>
    <edge id=":W2SJ_0" function="internal">
        <lane id=":W2SJ_0_0" index="0" disallow="pedestrian" speed="13.89" length="0.27" shape="69.75,58.99 69.79,58.92 69.81,58.88 69.84,58.83 69.86,58.75"/>
    </edge>

    <edge id="-463663598#0" from="4589147961" to="4589147749" name="Al Fay Forest Park" priority="1" type="highway.path">
        <lane id="-463663598#0_0" index="0" allow="pedestrian bicycle" speed="5.56" length="1.77" width="2.00" shape="125.72,27.00 127.42,27.47">
            <param key="origId" value="463663598"/>
        </lane>
    </edge>
    <edge id="-463663598#1" from="4589147750" to="4589147961" name="Al Fay Forest Park" priority="1" type="highway.path">
        <lane id="-463663598#1_0" index="0" allow="pedestrian bicycle" speed="5.56" length="3.44" width="2.00" shape="117.97,24.37 121.20,25.56">
            <param key="origId" value="463663598"/>
        </lane>
    </edge>
    <edge id="463663598#0" from="4589147749" to="4589147961" name="Al Fay Forest Park" priority="1" type="highway.path">
        <lane id="463663598#0_0" index="0" allow="pedestrian bicycle" speed="5.56" length="1.77" width="2.00" shape="126.90,29.39 125.19,28.93">
            <param key="origId" value="463663598"/>
        </lane>
    </edge>
    <edge id="463663598#1" from="4589147961" to="4589147750" name="Al Fay Forest Park" priority="1" type="highway.path">
        <lane id="463663598#1_0" index="0" allow="pedestrian bicycle" speed="5.56" length="3.44" width="2.00" shape="120.51,27.43 117.29,26.25">
            <param key="origId" value="463663598"/>
        </lane>
    </edge>
    <edge id="463663628#0" from="4589147961" to="S2EJ" priority="1" type="highway.footway" spreadType="center">
        <lane id="463663628#0_0" index="0" allow="pedestrian" speed="2.78" length="0.20" width="2.00" shape="122.13,30.43 122.06,30.62">
            <param key="origId" value="463663628"/>
        </lane>
    </edge>
    <edge id="463663628#1" from="S2EJ" to="4589147962" priority="1" type="highway.footway" spreadType="center">
        <lane id="463663628#1_0" index="0" allow="pedestrian" speed="2.78" length="0.20" width="2.00" shape="119.87,35.59 119.76,35.76">
            <param key="origId" value="463663628"/>
        </lane>
    </edge>
    <edge id="463663629#0" from="4589147962" to="TL" priority="1" type="highway.footway" spreadType="center" shape="119.20,36.64 107.51,44.39">
        <lane id="463663629#0_0" index="0" allow="pedestrian" speed="2.78" length="0.20" width="2.00" shape="118.37,37.19 118.20,37.30">
            <param key="origId" value="463663629"/>
        </lane>
        <param key="origTo" value="4599465029"/>
    </edge>
    <edge id="463663629#2" from="TL" to="4589147964" priority="1" type="highway.footway" spreadType="center" shape="90.93,53.75 78.93,61.39">
        <lane id="463663629#2_0" index="0" allow="pedestrian" speed="2.78" length="0.20" width="2.00" shape="79.83,60.82 79.66,60.92">
            <param key="origId" value="463663629"/>
        </lane>
        <param key="origFrom" value="4599465030"/>
    </edge>
    <edge id="463663630#0" from="4589147962" to="TL" priority="1" type="highway.footway" spreadType="center" shape="119.20,36.64 124.32,46.23">
        <lane id="463663630#0_0" index="0" allow="pedestrian" speed="2.78" length="0.20" width="2.00" shape="119.67,37.52 119.77,37.70">
            <param key="origId" value="463663630"/>
        </lane>
        <param key="origTo" value="4589147965"/>
    </edge>
    <edge id="463663630#2" from="TL" to="4589147966" priority="1" type="highway.footway" spreadType="center" shape="132.01,59.59 137.49,68.13">
        <lane id="463663630#2_0" index="0" allow="pedestrian" speed="2.78" length="0.20" width="2.00" shape="136.89,67.20 137.00,67.37">
            <param key="origId" value="463663630"/>
        </lane>
        <param key="origFrom" value="4599465027"/>
    </edge>
    <edge id="463663631#0" from="4589147966" to="TL" priority="1" type="highway.footway" spreadType="center" shape="137.49,68.13 127.54,74.41">
        <lane id="463663631#0_0" index="0" allow="pedestrian" speed="2.78" length="0.20" width="2.00" shape="136.72,68.61 136.55,68.72">
            <param key="origId" value="463663631"/>
        </lane>
        <param key="origTo" value="4599465036"/>
    </edge>
    <edge id="463663631#2" from="TL" to="4589147968" priority="1" type="highway.footway" spreadType="center" shape="110.00,83.89 98.40,89.89">
        <lane id="463663631#2_0" index="0" allow="pedestrian" speed="2.78" length="0.20" width="2.00" shape="99.15,89.50 98.97,89.60">
            <param key="origId" value="463663631"/>
        </lane>
        <param key="origFrom" value="4599465035"/>
    </edge>
    <edge id="463663632#0" from="4589147968" to="TL" priority="1" type="highway.footway" spreadType="center" shape="98.40,89.89 92.77,84.12">
        <lane id="463663632#0_0" index="0" allow="pedestrian" speed="2.78" length="0.20" width="2.00" shape="97.95,89.43 97.81,89.29">
            <param key="origId" value="463663632"/>
        </lane>
        <param key="origTo" value="4599465032"/>
    </edge>