<?xml version="1.0" encoding="UTF-8"?>

<configuration xmlns:xsi="http://www.w3.org/2001/XMLSchema-instance" xsi:noNamespaceSchemaLocation="http://sumo.dlr.de/xsd/sumoConfiguration.xsd">

    <input>
        <net-file value="/Deep-QLearning-Agent-for-Traffic-Signal-Control-master/TLCS/intersection/abudhabi-intersection-train/osm.net.xml"/>
        <route-files value="/Deep-QLearning-Agent-for-Traffic-Signal-Control-master/TLCS/intersection/abudhabi-intersection-train/osm-new.rou.xml"/>
    </input>

    <time>
      <begin value="0"/>
    </time>

    <processing>
        <time-to-teleport value="-1"/>
    </processing>

</configuration>
