<?xml version="1.0" encoding="UTF-8"?>

<!-- generated on 2024-11-10 20:10:38 by Eclipse SUMO netedit Version 1.20.0
<configuration xmlns:xsi="http://www.w3.org/2001/XMLSchema-instance" xsi:noNamespaceSchemaLocation="http://sumo.dlr.de/xsd/neteditConfiguration.xsd">

    <input>
        <sumo-net-file value="C:\Users\ASUS\Desktop\MBZUAI\AI701\Models\BaseTLS\abudhabi-intersection-train\osm.net.xml"/>
    </input>

    <output>
        <output-file value="C:\Users\ASUS\Desktop\MBZUAI\AI701\Models\BaseTLS\abudhabi-intersection-train\osm.net.xml"/>
        <output.street-names value="true"/>
    </output>

    <processing>
        <geometry.min-radius.fix.railways value="false"/>
        <geometry.max-grade.fix value="false"/>
        <offset.disable-normalization value="true"/>
        <lefthand value="0"/>
    </processing>

    <junctions>
        <no-internal-links value="false"/>
        <no-turnarounds value="true"/>
        <junctions.corner-detail value="5"/>
        <junctions.limit-turn-speed value="5.50"/>
        <rectangular-lane-cut value="0"/>
    </junctions>

    <pedestrian>
        <walkingareas value="1"/>
    </pedestrian>

</configuration>
-->

<net version="1.20" junctionCornerDetail="5" walkingareas="true" limitTurnSpeed="5.50" xmlns:xsi="http://www.w3.org/2001/XMLSchema-instance" xsi:noNamespaceSchemaLocation="http://sumo.dlr.de/xsd/net_file.xsd">

    <location netOffset="-236867.04,-2711183.16" convBoundary="-25.21,-50.77,243.01,172.02" origBoundary="54.403534,24.492120,54.405761,24.493807" projParameter="+proj=utm +zone=40 +ellps=WGS84 +datum=WGS84 +units=m +no_defs"/>

    <type id="highway.footway" priority="1" numLanes="1" speed="2.78" allow="pedestrian" oneway="1" width="2.00"/>
    <type id="highway.path" priority="1" numLanes="1" speed="5.56" allow="pedestrian bicycle" oneway="0" width="2.00"/>
    <type id="highway.secondary" priority="11" numLanes="1" speed="13.89" disallow="pedestrian tram rail_urban rail rail_electric rail_fast ship container cable_car subway aircraft wheelchair scooter drone" oneway="0" sidewalkWidth="3.00"/>
    <type id="highway.secondary_link" priority="6" numLanes="1" speed="13.89" disallow="pedestrian tram rail_urban rail rail_electric rail_fast ship container cable_car subway aircraft wheelchair scooter drone" oneway="0" sidewalkWidth="3.00"/>
    <type id="highway.tertiary" priority="10" numLanes="1" speed="13.89" disallow="pedestrian tram rail_urban rail rail_electric rail_fast ship container cable_car subway aircraft wheelchair scooter drone" oneway="0" sidewalkWidth="3.00"/>

    <edge id=":4589147749_0" function="internal">
        <lane id=":4589147749_0_0" index="0" allow="pedestrian bicycle" speed="2.89" length="2.92" width="2.00" shape="127.42,27.47 128.02,28.15 128.12,28.69 127.75,29.11 126.90,29.39"/>
    </edge>
    <edge id=":4589147750_0" function="internal">
        <lane id=":4589147750_0_0" index="0" allow="pedestrian bicycle" speed="2.89" length="2.92" width="2.00" shape="117.29,26.25 116.75,25.52 116.69,24.97 117.10,24.58 117.97,24.37"/>
    </edge>
    <edge id=":4589147961_0" function="internal">
        <lane id=":4589147961_0_0" index="0" allow="pedestrian bicycle" speed="5.56" length="4.91" width="2.00" shape="125.19,28.93 120.51,27.43"/>
    </edge>
    <edge id=":4589147961_1" function="internal">
        <lane id=":4589147961_1_0" index="0" allow="pedestrian bicycle" speed="2.89" length="2.48" width="2.00" shape="125.19,28.93 124.60,28.25 124.49,27.70 124.86,27.28 125.30,27.14"/>
    </edge>
    <edge id=":4589147961_4" function="internal">
        <lane id=":4589147961_4_0" index="0" allow="pedestrian bicycle" speed="2.89" length="0.44" width="2.00" shape="125.30,27.14 125.72,27.00"/>
    </edge>
    <edge id=":4589147961_2" function="internal">
        <lane id=":4589147961_2_0" index="0" allow="pedestrian bicycle" speed="5.56" length="4.74" width="2.00" shape="121.20,25.56 125.72,27.00"/>
    </edge>
    <edge id=":4589147961_3" function="internal">
        <lane id=":4589147961_3_0" index="0" allow="pedestrian bicycle" speed="2.89" length="0.79" width="2.00" shape="121.20,25.56 121.67,26.20"/>
    </edge>
    <edge id=":4589147961_5" function="internal">
        <lane id=":4589147961_5_0" index="0" allow="pedestrian bicycle" speed="2.89" length="2.13" width="2.00" shape="121.67,26.20 121.73,26.28 121.79,26.84 121.39,27.22 120.51,27.43"/>
    </edge>
    <edge id=":4589147961_w0" function="walkingarea">
        <lane id=":4589147961_w0_0" index="0" allow="pedestrian" speed="2.78" length="4.08" width="4.00" shape="124.93,29.89 125.98,26.03 121.54,24.62 120.17,28.37 120.90,28.82 121.11,29.12 121.21,29.47 121.21,29.87 121.11,30.32 123.01,30.93 123.43,30.18 123.72,29.96 124.07,29.83 124.47,29.81"/>
    </edge>
    <edge id=":4589147962_w0" function="walkingarea">
        <lane id=":4589147962_w0_0" index="0" allow="pedestrian" speed="2.78" length="1.70" width="2.00" shape="119.54,39.40 121.31,38.46 120.87,37.33 120.80,36.81 120.82,36.32 120.94,35.86 121.16,35.42 119.48,34.34 118.59,35.62 118.21,36.02 117.78,36.37 117.23,36.75 116.48,37.24 117.59,38.91 118.36,38.60 118.70,38.62 119.01,38.76 119.29,39.02"/>
    </edge>
    <edge id=":4589147964_w0" function="walkingarea">
        <lane id=":4589147964_w0_0" index="0" allow="pedestrian" speed="2.78" length="1.25" width="2.00" shape="79.33,64.02 81.05,63.00 80.77,62.20 80.79,61.83 80.93,61.50 81.19,61.19 81.55,60.91 80.48,59.22 79.06,60.57 78.74,61.34 78.68,62.18 78.88,63.07"/>
    </edge>
    <edge id=":4589147966_w0" function="walkingarea">
        <lane id=":4589147966_w0_0" index="0" allow="pedestrian" speed="2.78" length="2.18" width="4.00" shape="139.14,69.52 139.58,67.57 138.38,67.18 138.00,66.92 137.69,66.57 137.37,66.10 136.98,65.48 135.29,66.56 135.60,67.35 135.58,67.71 135.45,68.04 135.20,68.34 134.84,68.62 135.90,70.31 137.01,69.63 137.44,69.45 137.89,69.37 138.43,69.39"/>
    </edge>
    <edge id=":4589147968_w0" function="walkingarea">
        <lane id=":4589147968_w0_0" index="0" allow="pedestrian" speed="2.78" length="1.67" width="4.00" shape="100.85,89.75 99.93,87.97 99.07,88.24 98.67,88.22 98.28,88.11 97.91,87.90 97.55,87.59 96.12,88.98 96.81,89.88 97.04,90.36 97.20,90.86 97.28,91.37 97.29,91.90 99.29,92.01 99.50,91.10 99.72,90.70 100.02,90.34 100.39,90.02"/>
    </edge>
    <edge id=":E2NJ_0" function="internal">
        <lane id=":E2NJ_0_0" index="0" disallow="pedestrian tram rail_urban rail rail_electric rail_fast ship container cable_car subway aircraft wheelchair scooter drone" speed="13.89" length="5.40" shape="144.26,66.87 143.80,68.41 143.55,69.48 143.42,70.57 143.33,72.16"/>
    </edge>
    <edge id=":E2NJ_c0" function="crossing" crossingEdges="E2JN">
        <lane id=":E2NJ_c0_0" index="0" allow="pedestrian" speed="2.78" length="3.20" width="4.00" shape="142.14,68.32 145.20,69.25" outlineShape="142.73,66.40 145.79,67.34 145.48,68.36 145.27,69.12 145.13,69.75 145.04,70.40 144.98,71.18 146.49,71.00 144.61,71.17 141.55,70.23 142.68,66.44 140.72,67.83 140.29,69.78"/>
    </edge>
    <edge id=":E2NJ_w0" function="walkingarea">
        <lane id=":E2NJ_w0_0" index="0" allow="pedestrian" speed="2.78" length="1.64" width="4.00" shape="146.49,71.00 146.83,69.02 145.79,67.34 145.48,68.36 145.27,69.12 145.13,69.75 145.04,70.40 144.98,71.18"/>
    </edge>
    <edge id=":E2NJ_w1" function="walkingarea">
        <lane id=":E2NJ_w1_0" index="0" allow="pedestrian" speed="2.78" length="1.71" width="4.00" shape="141.55,70.23 142.73,66.40 140.72,67.83 140.29,69.78"/>
    </edge>
    <edge id=":N2WJ_0" function="internal">
        <lane id=":N2WJ_0_0" index="0" disallow="pedestrian tram rail_urban rail rail_electric rail_fast ship container cable_car subway aircraft wheelchair scooter drone" speed="13.89" length="4.44" shape="100.19,94.76 98.94,94.38 98.05,94.21 97.14,94.17 95.83,94.23"/>
    </edge>
    <edge id=":S2EJ_0" function="internal">
        <lane id=":S2EJ_0_0" index="0" disallow="pedestrian tram rail_urban rail rail_electric rail_fast ship container cable_car subway aircraft wheelchair scooter drone" speed="13.89" length="5.84" shape="118.07,32.97 123.78,34.17"/>
    </edge>
    <edge id=":S2EJ_c0" function="crossing" crossingEdges="S2JE">
        <lane id=":S2EJ_c0_0" index="0" allow="pedestrian" speed="2.78" length="3.20" width="4.00" shape="119.62,35.01 120.40,31.90" outlineShape="117.68,34.52 118.46,31.42 122.34,32.39 121.56,35.49 117.68,34.52"/>
    </edge>
    <edge id=":S2EJ_w0" function="walkingarea">
        <lane id=":S2EJ_w0_0" index="0" allow="pedestrian" speed="2.78" length="2.10" width="4.00" shape="123.02,30.93 121.11,30.31 118.46,31.42 122.34,32.39"/>
    </edge>
    <edge id=":S2EJ_w1" function="walkingarea">
        <lane id=":S2EJ_w1_0" index="0" allow="pedestrian" speed="2.78" length="0.64" width="4.00" shape="121.56,35.49 117.68,34.52 119.02,35.06 120.71,36.13"/>
    </edge>
    <edge id=":TL_0" function="internal">
        <lane id=":TL_0_0" index="0" disallow="pedestrian tram rail_urban rail rail_electric rail_fast ship container cable_car subway aircraft wheelchair scooter drone" speed="9.22" length="14.83" shape="108.13,90.08 105.28,86.92 101.55,85.61 96.93,86.14 95.12,86.93"/>
    </edge>
    <edge id=":TL_1" function="internal">
        <lane id=":TL_1_0" index="0" disallow="pedestrian tram rail_urban rail rail_electric rail_fast ship container cable_car subway aircraft wheelchair scooter drone" speed="13.89" length="44.40" shape="108.13,90.08 84.61,51.71"/>
        <lane id=":TL_1_1" index="1" disallow="pedestrian tram rail_urban rail rail_electric rail_fast ship container cable_car subway aircraft wheelchair scooter drone" speed="13.89" length="44.40" shape="110.81,88.34 87.49,50.32"/>
        <lane id=":TL_1_2" index="2" disallow="pedestrian tram rail_urban rail rail_electric rail_fast ship container cable_car subway aircraft wheelchair scooter drone" speed="13.89" length="44.40" shape="113.50,86.59 90.37,48.93"/>
        <lane id=":TL_1_3" index="3" disallow="pedestrian tram rail_urban rail rail_electric rail_fast ship container cable_car subway aircraft wheelchair scooter drone" speed="13.89" length="44.40" shape="116.19,84.85 93.26,47.53"/>
    </edge>
    <edge id=":TL_5" function="internal">
        <lane id=":TL_5_0" index="0" disallow="pedestrian tram rail_urban rail rail_electric rail_fast ship container cable_car subway aircraft wheelchair scooter drone" speed="13.74" length="41.60" shape="116.19,84.85 111.78,73.68 112.45,63.71 118.18,54.96 125.67,49.72"/>
    </edge>
    <edge id=":TL_6" function="internal">
        <lane id=":TL_6_0" index="0" disallow="pedestrian tram rail_urban rail rail_electric rail_fast ship container cable_car subway aircraft wheelchair scooter drone" speed="5.82" length="15.20" shape="116.19,84.85 116.25,80.16 117.72,77.65 120.61,77.33 124.92,79.19"/>
    </edge>
    <edge id=":TL_26" function="internal">
        <lane id=":TL_26_0" index="0" disallow="pedestrian tram rail_urban rail rail_electric rail_fast ship container cable_car subway aircraft wheelchair scooter drone" speed="9.22" length="4.02" shape="95.12,86.93 91.43,88.53"/>
    </edge>
    <edge id=":TL_27" function="internal">
        <lane id=":TL_27_0" index="0" disallow="pedestrian tram rail_urban rail rail_electric rail_fast ship container cable_car subway aircraft wheelchair scooter drone" speed="13.74" length="4.03" shape="125.67,49.72 128.98,47.41"/>
    </edge>
    <edge id=":TL_7" function="internal">
        <lane id=":TL_7_0" index="0" disallow="pedestrian tram rail_urban rail rail_electric rail_fast ship container cable_car subway aircraft wheelchair scooter drone" speed="8.32" length="11.20" shape="135.95,60.83 132.74,63.64 131.18,66.77 131.25,70.21"/>
    </edge>
    <edge id=":TL_8" function="internal">
        <lane id=":TL_8_0" index="0" disallow="pedestrian tram rail_urban rail rail_electric rail_fast ship container cable_car subway aircraft wheelchair scooter drone" speed="18.05" length="52.53" shape="135.95,60.83 91.43,88.53"/>
        <lane id=":TL_8_1" index="1" disallow="pedestrian tram rail_urban rail rail_electric rail_fast ship container cable_car subway aircraft wheelchair scooter drone" speed="18.05" length="52.53" shape="134.46,57.97 89.87,85.73"/>
        <lane id=":TL_8_2" index="2" disallow="pedestrian tram rail_urban rail rail_electric rail_fast ship container cable_car subway aircraft wheelchair scooter drone" speed="18.05" length="52.53" shape="132.98,55.12 88.32,82.94"/>
    </edge>
    <edge id=":TL_11" function="internal">
        <lane id=":TL_11_0" index="0" disallow="pedestrian tram rail_urban rail rail_electric rail_fast ship container cable_car subway aircraft wheelchair scooter drone" speed="13.81" length="44.75" shape="132.98,55.12 120.24,61.99 109.75,63.55 100.95,58.99 95.51,50.89"/>
    </edge>
    <edge id=":TL_12" function="internal">
        <lane id=":TL_12_0" index="0" disallow="pedestrian tram rail_urban rail rail_electric rail_fast ship container cable_car subway aircraft wheelchair scooter drone" speed="5.43" length="12.68" shape="132.98,55.12 129.09,54.69 127.13,53.27 127.09,50.84 128.98,47.41"/>
    </edge>
    <edge id=":TL_28" function="internal">
        <lane id=":TL_28_0" index="0" disallow="pedestrian tram rail_urban rail rail_electric rail_fast ship container cable_car subway aircraft wheelchair scooter drone" speed="8.32" length="4.13" shape="131.25,70.21 132.97,73.96"/>
    </edge>
    <edge id=":TL_29" function="internal">
        <lane id=":TL_29_0" index="0" disallow="pedestrian tram rail_urban rail rail_electric rail_fast ship container cable_car subway aircraft wheelchair scooter drone" speed="13.81" length="4.04" shape="95.51,50.89 93.26,47.53"/>
    </edge>
    <edge id=":TL_13" function="internal">
        <lane id=":TL_13_0" index="0" disallow="pedestrian tram rail_urban rail rail_electric rail_fast ship container cable_car subway aircraft wheelchair scooter drone" speed="8.89" length="14.04" shape="110.34,39.27 112.88,42.60 116.34,44.12 120.73,43.83 122.29,43.21"/>
    </edge>
    <edge id=":TL_14" function="internal">
        <lane id=":TL_14_0" index="0" disallow="pedestrian tram rail_urban rail rail_electric rail_fast ship container cable_car subway aircraft wheelchair scooter drone" speed="13.89" length="42.08" shape="110.34,39.27 116.07,49.90 120.89,57.05 126.09,63.99 132.97,73.96"/>
        <lane id=":TL_14_1" index="1" disallow="pedestrian tram rail_urban rail rail_electric rail_fast ship container cable_car subway aircraft wheelchair scooter drone" speed="13.89" length="42.08" shape="107.46,40.66 113.22,51.35 118.11,58.62 123.37,65.67 130.29,75.70"/>
        <lane id=":TL_14_2" index="2" disallow="pedestrian tram rail_urban rail rail_electric rail_fast ship container cable_car subway aircraft wheelchair scooter drone" speed="13.89" length="42.08" shape="104.58,42.06 110.37,52.80 115.32,60.19 120.66,67.36 127.60,77.44"/>
        <lane id=":TL_14_3" index="3" disallow="pedestrian tram rail_urban rail rail_electric rail_fast ship container cable_car subway aircraft wheelchair scooter drone" speed="13.89" length="42.08" shape="101.70,43.45 107.52,54.24 112.54,61.75 117.94,69.05 124.92,79.19"/>
    </edge>
    <edge id=":TL_18" function="internal">
        <lane id=":TL_18_0" index="0" disallow="pedestrian tram rail_urban rail rail_electric rail_fast ship container cable_car subway aircraft wheelchair scooter drone" speed="12.50" length="42.98" shape="101.70,43.45 105.50,55.34 104.54,65.89 98.81,75.09 91.55,80.52"/>
    </edge>
    <edge id=":TL_19" function="internal">
        <lane id=":TL_19_0" index="0" disallow="pedestrian tram rail_urban rail rail_electric rail_fast ship container cable_car subway aircraft wheelchair scooter drone" speed="5.53" length="13.69" shape="101.70,43.45 101.12,47.64 99.52,49.71 96.90,49.68 93.26,47.53"/>
    </edge>
    <edge id=":TL_30" function="internal">
        <lane id=":TL_30_0" index="0" disallow="pedestrian tram rail_urban rail rail_electric rail_fast ship container cable_car subway aircraft wheelchair scooter drone" speed="8.89" length="4.02" shape="122.29,43.21 126.03,41.73"/>
    </edge>
    <edge id=":TL_31" function="internal">
        <lane id=":TL_31_0" index="0" disallow="pedestrian tram rail_urban rail rail_electric rail_fast ship container cable_car subway aircraft wheelchair scooter drone" speed="12.50" length="4.04" shape="91.55,80.52 88.32,82.94"/>
    </edge>
    <edge id=":TL_20" function="internal">
        <lane id=":TL_20_0" index="0" disallow="pedestrian tram rail_urban rail rail_electric rail_fast ship container cable_car subway aircraft wheelchair scooter drone" speed="9.69" length="17.34" shape="81.26,70.27 85.22,67.31 87.10,63.24 86.90,58.04 85.98,55.49"/>
    </edge>
    <edge id=":TL_21" function="internal">
        <lane id=":TL_21_0" index="0" disallow="pedestrian tram rail_urban rail rail_electric rail_fast ship container cable_car subway aircraft wheelchair scooter drone" speed="18.05" length="53.02" shape="81.26,70.27 92.09,64.06 103.73,56.17 115.32,48.21 126.03,41.73"/>
        <lane id=":TL_21_1" index="1" disallow="pedestrian tram rail_urban rail rail_electric rail_fast ship container cable_car subway aircraft wheelchair scooter drone" speed="18.05" length="53.02" shape="82.82,73.07 93.59,66.77 105.20,58.91 116.79,51.01 127.50,44.57"/>
        <lane id=":TL_21_2" index="2" disallow="pedestrian tram rail_urban rail rail_electric rail_fast ship container cable_car subway aircraft wheelchair scooter drone" speed="18.05" length="53.02" shape="84.38,75.87 95.14,69.57 106.72,61.73 118.28,53.84 128.98,47.41"/>
    </edge>
    <edge id=":TL_24" function="internal">
        <lane id=":TL_24_0" index="0" disallow="pedestrian tram rail_urban rail rail_electric rail_fast ship container cable_car subway aircraft wheelchair scooter drone" speed="14.52" length="40.78" shape="84.38,75.87 97.79,70.66 109.02,69.47 118.06,72.32 122.03,76.29"/>
    </edge>
    <edge id=":TL_25" function="internal">
        <lane id=":TL_25_0" index="0" disallow="pedestrian tram rail_urban rail rail_electric rail_fast ship container cable_car subway aircraft wheelchair scooter drone" speed="5.23" length="11.83" shape="84.38,75.87 88.01,76.16 89.88,77.43 89.98,79.69 88.32,82.94"/>
    </edge>
    <edge id=":TL_32" function="internal">
        <lane id=":TL_32_0" index="0" disallow="pedestrian tram rail_urban rail rail_electric rail_fast ship container cable_car subway aircraft wheelchair scooter drone" speed="9.69" length="4.02" shape="85.98,55.49 84.61,51.71"/>
    </edge>
    <edge id=":TL_33" function="internal">
        <lane id=":TL_33_0" index="0" disallow="pedestrian tram rail_urban rail rail_electric rail_fast ship container cable_car subway aircraft wheelchair scooter drone" speed="14.52" length="4.09" shape="122.03,76.29 124.92,79.19"/>
    </edge>
    <edge id=":TL_c0" function="crossing" crossingEdges="N2TL">
        <lane id=":TL_c0_0" index="0" allow="pedestrian" speed="2.78" length="12.81" width="4.00" shape="116.55,82.31 105.73,89.17" outlineShape="117.62,84.00 106.80,90.86 104.66,87.48 115.48,80.62 117.70,83.95 115.48,80.62"/>
    </edge>
    <edge id=":TL_c1" function="crossing" crossingEdges="TL2N">
        <lane id=":TL_c1_0" index="0" allow="pedestrian" speed="2.78" length="12.80" width="4.00" shape="133.22,71.41 122.49,78.38" outlineShape="134.31,73.09 123.57,80.06 121.40,76.70 123.57,80.06 121.40,76.70 132.14,69.74 134.31,73.09"/>
    </edge>
    <edge id=":TL_c2" function="crossing" crossingEdges="E2TL">
        <lane id=":TL_c2_0" index="0" allow="pedestrian" speed="2.78" length="9.65" width="4.00" shape="130.42,54.87 135.17,63.27" outlineShape="132.16,53.89 136.91,62.29 133.42,64.26 134.62,65.84 133.42,64.26 128.68,55.85 132.16,53.89 128.68,55.85 127.81,54.06"/>
    </edge>
    <edge id=":TL_c3" function="crossing" crossingEdges="TL2E">
        <lane id=":TL_c3_0" index="0" allow="pedestrian" speed="2.78" length="9.60" width="4.00" shape="123.51,41.24 127.94,49.76" outlineShape="125.29,40.32 129.76,48.92 132.16,53.89 128.68,55.85 126.17,50.68 121.01,40.77 121.60,40.88 123.54,40.84 125.29,40.32"/>
    </edge>
    <edge id=":TL_c4" function="crossing" crossingEdges="S2TL">
        <lane id=":TL_c4_0" index="0" allow="pedestrian" speed="2.78" length="12.80" width="4.00" shape="101.14,45.95 112.66,40.36" outlineShape="100.27,44.15 111.78,38.56 113.53,42.16 115.08,40.96 113.53,42.16 102.02,47.75 100.27,44.15 102.02,47.75 100.22,48.62"/>
    </edge>
    <edge id=":TL_c5" function="crossing" crossingEdges="TL2S">
        <lane id=":TL_c5_0" index="0" allow="pedestrian" speed="2.78" length="12.80" width="4.00" shape="84.04,54.21 95.57,48.64" outlineShape="83.17,52.41 94.70,46.84 96.44,50.44 94.70,46.84 96.44,50.44 83.91,56.49 83.88,54.93 83.17,52.41"/>
    </edge>
    <edge id=":TL_c6" function="crossing" crossingEdges="W2TL">
        <lane id=":TL_c6_0" index="0" allow="pedestrian" speed="2.78" length="9.57" width="4.00" shape="86.88,76.41 82.37,67.96" outlineShape="85.12,77.35 80.61,68.90 84.14,67.02 82.97,65.42 84.14,67.02 88.64,75.47 85.17,77.44 88.64,75.47"/>
    </edge>
    <edge id=":TL_c7" function="crossing" crossingEdges="TL2W">
        <lane id=":TL_c7_0" index="0" allow="pedestrian" speed="2.78" length="9.60" width="4.00" shape="93.96,88.95 89.28,80.57" outlineShape="92.26,90.01 87.49,81.45 91.03,79.59 87.54,81.54 91.03,79.59 95.70,87.98 92.21,89.93 97.10,89.99 98.53,88.59 95.70,87.98"/>
    </edge>
    <edge id=":TL_w0" function="walkingarea">
        <lane id=":TL_w0_0" index="0" allow="pedestrian" speed="2.78" length="4.28" width="4.00" shape="132.14,69.74 134.31,73.09 137.09,69.57 136.02,67.88"/>
    </edge>
    <edge id=":TL_w1" function="walkingarea">
        <lane id=":TL_w1_0" index="0" allow="pedestrian" speed="2.78" length="4.29" width="4.00" shape="136.05,67.74 137.73,66.66 136.91,62.29 133.42,64.26"/>
    </edge>
    <edge id=":TL_w2" function="walkingarea">
        <lane id=":TL_w2_0" index="0" allow="pedestrian" speed="2.78" length="5.16" width="4.00" shape="125.29,40.32 120.65,37.23 118.88,38.17 118.03,39.07 118.49,39.90 119.80,40.54 121.60,40.88 123.54,40.84"/>
    </edge>
    <edge id=":TL_w3" function="walkingarea">
        <lane id=":TL_w3_0" index="0" allow="pedestrian" speed="2.78" length="6.33" width="4.00" shape="118.75,38.14 117.65,36.47 111.78,38.56 113.53,42.16"/>
    </edge>
    <edge id=":TL_w4" function="walkingarea">
        <lane id=":TL_w4_0" index="0" allow="pedestrian" speed="2.78" length="7.83" width="4.00" shape="83.17,52.41 79.30,59.97 80.37,61.66 81.57,62.87 82.66,62.22 83.50,60.34 83.94,57.74 83.88,54.93"/>
    </edge>
    <edge id=":TL_w5" function="walkingarea">
        <lane id=":TL_w5_0" index="0" allow="pedestrian" speed="2.78" length="6.35" width="4.00" shape="80.34,61.80 78.62,62.82 80.61,68.90 84.14,67.02"/>
    </edge>
    <edge id=":TL_w6" function="walkingarea">
        <lane id=":TL_w6_0" index="0" allow="pedestrian" speed="2.78" length="3.87" width="4.00" shape="95.70,87.98 92.21,89.93 97.10,89.99 98.53,88.59"/>
    </edge>
    <edge id=":TL_w7" function="walkingarea">
        <lane id=":TL_w7_0" index="0" allow="pedestrian" speed="2.78" length="6.59" width="4.00" shape="98.69,88.62 99.61,90.39 106.80,90.86 104.66,87.48"/>
    </edge>
    <edge id=":TL_w8" function="walkingarea">
        <lane id=":TL_w8_0" index="0" allow="pedestrian" speed="2.78" length="7.12" width="4.00" shape="121.40,76.70 123.57,80.06 117.62,84.00 115.48,80.62"/>
    </edge>
    <edge id=":TL_w9" function="walkingarea">
        <lane id=":TL_w9_0" index="0" allow="pedestrian" speed="2.78" length="5.68" width="4.00" shape="126.17,50.68 129.72,48.83 132.16,53.89 128.68,55.85"/>
    </edge>
    <edge id=":TL_w10" function="walkingarea">
        <lane id=":TL_w10_0" index="0" allow="pedestrian" speed="2.78" length="6.19" width="4.00" shape="96.44,50.44 94.70,46.84 100.27,44.15 102.02,47.75"/>
    </edge>
    <edge id=":TL_w11" function="walkingarea">
        <lane id=":TL_w11_0" index="0" allow="pedestrian" speed="2.78" length="4.81" width="4.00" shape="91.03,79.59 87.54,81.54 85.12,77.35 88.64,75.47"/>
    </edge>
    <edge id=":W2SJ_0" function="internal">
        <lane id=":W2SJ_0_0" index="0" disallow="pedestrian" speed="13.89" length="0.27" shape="69.75,58.99 69.79,58.92 69.81,58.88 69.84,58.83 69.86,58.75"/>
    </edge>

    <edge id="-463663598#0" from="4589147961" to="4589147749" name="Al Fay Forest Park" priority="1" type="highway.path">
        <lane id="-463663598#0_0" index="0" allow="pedestrian bicycle" speed="5.56" length="1.77" width="2.00" shape="125.72,27.00 127.42,27.47">
            <param key="origId" value="463663598"/>
        </lane>
    </edge>
    <edge id="-463663598#1" from="4589147750" to="4589147961" name="Al Fay Forest Park" priority="1" type="highway.path">
        <lane id="-463663598#1_0" index="0" allow="pedestrian bicycle" speed="5.56" length="3.44" width="2.00" shape="117.97,24.37 121.20,25.56">
            <param key="origId" value="463663598"/>
        </lane>
    </edge>
    <edge id="463663598#0" from="4589147749" to="4589147961" name="Al Fay Forest Park" priority="1" type="highway.path">
        <lane id="463663598#0_0" index="0" allow="pedestrian bicycle" speed="5.56" length="1.77" width="2.00" shape="126.90,29.39 125.19,28.93">
            <param key="origId" value="463663598"/>
        </lane>
    </edge>
    <edge id="463663598#1" from="4589147961" to="4589147750" name="Al Fay Forest Park" priority="1" type="highway.path">
        <lane id="463663598#1_0" index="0" allow="pedestrian bicycle" speed="5.56" length="3.44" width="2.00" shape="120.51,27.43 117.29,26.25">
            <param key="origId" value="463663598"/>
        </lane>
    </edge>
    <edge id="463663628#0" from="4589147961" to="S2EJ" priority="1" type="highway.footway" spreadType="center">
        <lane id="463663628#0_0" index="0" allow="pedestrian" speed="2.78" length="0.20" width="2.00" shape="122.13,30.43 122.06,30.62">
            <param key="origId" value="463663628"/>
        </lane>
    </edge>
    <edge id="463663628#1" from="S2EJ" to="4589147962" priority="1" type="highway.footway" spreadType="center">
        <lane id="463663628#1_0" index="0" allow="pedestrian" speed="2.78" length="0.20" width="2.00" shape="119.87,35.59 119.76,35.76">
            <param key="origId" value="463663628"/>
        </lane>
    </edge>
    <edge id="463663633#0" from="4589147966" to="E2NJ" priority="1" type="highway.footway" spreadType="center">
        <lane id="463663633#0_0" index="0" allow="pedestrian" speed="2.78" length="1.18" width="2.00" shape="139.36,68.55 140.51,68.81">
            <param key="origId" value="463663633"/>
        </lane>
    </edge>
    <edge id="463663633#1" from="E2NJ" to="4589147915" priority="1" type="highway.footway" spreadType="center">
        <lane id="463663633#1_0" index="0" allow="pedestrian" speed="2.78" length="1.61" width="2.00" shape="146.66,70.01 148.25,70.28">
            <param key="origId" value="463663633"/>
        </lane>
    </edge>
    <edge id="464896838#0" from="4589147968" to="N2WJ" priority="1" type="highway.footway" spreadType="center" shape="98.40,89.89 98.17,94.12">
        <lane id="464896838#0_0" index="0" allow="pedestrian" speed="2.78" length="0.20" width="2.00" shape="98.32,91.44 98.30,91.64">
            <param key="origId" value="464896838"/>
        </lane>
    </edge>
    <edge id="E2JN" from="E" to="E2NJ" priority="6" type="highway.secondary_link" spreadType="center" shape="243.01,5.84 150.04,55.92 145.46,62.94 143.46,69.47">
        <lane id="E2JN_0" index="0" disallow="pedestrian tram rail_urban rail rail_electric rail_fast ship container cable_car subway aircraft wheelchair scooter drone" speed="13.89" length="117.96" shape="242.89,5.90 150.04,55.92 145.46,62.94 144.26,66.87">
            <param key="origId" value="463663569"/>
        </lane>
    </edge>
    <edge id="E2TL" from="E" to="TL" name="شارع الرِّيم" priority="10" type="highway.tertiary" spreadType="center" shape="239.86,0.27 135.09,57.56 132.01,59.59">
        <lane id="E2TL_0" index="0" disallow="pedestrian tram rail_urban rail rail_electric rail_fast ship container cable_car subway aircraft wheelchair scooter drone" speed="22.22" length="120.16" shape="241.40,3.08 136.74,60.30 135.95,60.83">
            <param key="origId" value="167719753"/>
        </lane>
        <lane id="E2TL_1" index="1" disallow="pedestrian tram rail_urban rail rail_electric rail_fast ship container cable_car subway aircraft wheelchair scooter drone" speed="22.22" length="120.16" shape="239.86,0.27 135.09,57.56 134.46,57.97">
            <param key="origId" value="167719753"/>
        </lane>
        <lane id="E2TL_2" index="2" disallow="pedestrian tram rail_urban rail rail_electric rail_fast ship container cable_car subway aircraft wheelchair scooter drone" speed="22.22" length="120.16" shape="238.32,-2.54 133.44,54.82 132.98,55.12">
            <param key="origId" value="167719753"/>
        </lane>
        <param key="origTo" value="4599465027"/>
    </edge>
    <edge id="J2DS" from="W2SJ" to="DS" priority="-1" shape="71.26,59.58 75.95,47.46 76.43,32.27 43.33,-44.49">
        <lane id="J2DS_0" index="0" disallow="pedestrian" speed="13.89" length="19.35" shape="69.86,58.75 74.36,47.14 74.58,40.25"/>
    </edge>
    <edge id="J2E" from="S2EJ" to="DE" priority="6" type="highway.secondary_link" spreadType="center" shape="121.06,33.72 129.36,35.08 136.78,34.57 229.70,-15.85">
        <lane id="J2E_0" index="0" disallow="pedestrian tram rail_urban rail rail_electric rail_fast ship container cable_car subway aircraft wheelchair scooter drone" speed="13.89" length="118.70" shape="123.78,34.17 129.36,35.08 136.78,34.57 229.60,-15.80">
            <param key="origId" value="182191279"/>
        </lane>
    </edge>